# File generated by Flopy version 3.9.3 on 08/07/2025 at 01:33:06.
BEGIN options
END options

BEGIN timing
  TDIS6  rev_disv.tdis
END timing

BEGIN models
  gwf6  rev_disv.nam  rev_disv
END models

BEGIN exchanges
END exchanges

BEGIN solutiongroup  1
  ims6  rev_disv.ims  rev_disv
END solutiongroup  1

