# File generated by Flopy version 3.9.3 on 08/07/2025 at 01:33:06.
BEGIN options
  SAVE_FLOWS
END options

BEGIN packages
  DISV6  rev_disv.disv  disv
  NPF6  rev_disv.npf  npf
  IC6  rev_disv.ic  ic
  CHD6  rev_disv.chd  chd_0
  OC6  rev_disv.oc  oc
END packages

