# File generated by Flopy version 3.9.3 on 08/07/2025 at 01:33:06.
BEGIN options
  BUDGET  FILEOUT  rev_disv.bud
  HEAD  FILEOUT  rev_disv.hds
END options

BEGIN period  1
  SAVE  HEAD  ALL
  SAVE  BUDGET  ALL
END period  1

