# File generated by Flopy version 3.9.3 on 08/06/2025 at 22:59:24.
BEGIN options
END options

BEGIN griddata
  strt
    CONSTANT       1.00000000
END griddata

