# File generated by Flopy version 3.9.3 on 08/06/2025 at 22:59:24.
BEGIN options
  SAVE_FLOWS
END options

BEGIN packages
  DISV6  reverse_demo_disv.disv  disv
  NPF6  reverse_demo_disv.npf  npf
  IC6  reverse_demo_disv.ic  ic
  CHD6  reverse_demo_disv.chd  chd_0
  OC6  reverse_demo_disv.oc  oc
END packages

