# File generated by Flopy version 3.9.3 on 08/06/2025 at 22:59:24.
BEGIN options
END options

BEGIN dimensions
  MAXBOUND  2
END dimensions

BEGIN period  1
  1 1 1.00000000E+00
  1 100 0.00000000E+00
END period  1

