# AG package for MODFLOW-NWT generated by Flopy 3.9.3
OPTIONS
END
# segment list for irrigation diversions
SEGMENT LIST
END 
# ag stress period data
STRESS PERIOD 1
END 
STRESS PERIOD 2
END 
STRESS PERIOD 3
END 
STRESS PERIOD 4
END 
STRESS PERIOD 5
END 
STRESS PERIOD 6
END 
STRESS PERIOD 7
END 
STRESS PERIOD 8
END 
STRESS PERIOD 9
END 
STRESS PERIOD 10
END 
STRESS PERIOD 11
END 
STRESS PERIOD 12
END 
STRESS PERIOD 13
END 
STRESS PERIOD 14
END 
STRESS PERIOD 15
END 
STRESS PERIOD 16
END 
STRESS PERIOD 17
END 
STRESS PERIOD 18
END 
STRESS PERIOD 19
END 
STRESS PERIOD 20
END 
STRESS PERIOD 21
END 
STRESS PERIOD 22
END 
STRESS PERIOD 23
END 
STRESS PERIOD 24
END 
STRESS PERIOD 25
END 
STRESS PERIOD 26
END 
STRESS PERIOD 27
END 
STRESS PERIOD 28
END 
STRESS PERIOD 29
END 
STRESS PERIOD 30
END 
STRESS PERIOD 31
END 
STRESS PERIOD 32
END 
STRESS PERIOD 33
END 
STRESS PERIOD 34
END 
STRESS PERIOD 35
END 
STRESS PERIOD 36
END 
STRESS PERIOD 37
END 
STRESS PERIOD 38
END 
STRESS PERIOD 39
END 
STRESS PERIOD 40
END 
STRESS PERIOD 41
END 
STRESS PERIOD 42
END 
STRESS PERIOD 43
END 
STRESS PERIOD 44
END 
STRESS PERIOD 45
END 
STRESS PERIOD 46
END 
STRESS PERIOD 47
END 
STRESS PERIOD 48
END 
STRESS PERIOD 49
END 
