# Name file for MODFLOW-NWT, generated by Flopy version 3.9.3.
#xll:0.0; yll:0.0; rotation:0.0; units:meters; lenuni:2; start_datetime:1-1-1970
LIST               2  base_test.list
DIS               11  base_test.dis
BAS6              13  base_test.bas
UPW               31  base_test.upw
NWT               32  base_test.nwt
OC                14  base_test.oc
DATA(BINARY)      51  base_test.hds REPLACE
