# WEL package for MODFLOW-2005 generated by Flopy 3.9.3
         2       102  aux v1  aux v2 
         2         0 # stress period 1
         3         3         3         -1000.0             1.0             2.0
         3         2         2          -500.0           200.0           100.0
