# Name file for MODFLOW-2005, generated by Flopy version 3.9.3.
#xll:0.0; yll:0.0; rotation:0.0; units:meters; lenuni:2; start_datetime:1-1-1970
LIST               2  comparison_model.list
DIS               11  comparison_model.dis
LPF               15  comparison_model.lpf
BAS6              13  comparison_model.bas
WEL               20  comparison_model.wel
PCG               27  comparison_model.pcg
OC                14  comparison_model.oc
DATA(BINARY)     102  comparison_model.cbc REPLACE
DATA(BINARY)      51  comparison_model.hds REPLACE
