# WEL package for MODFLOW-2005 generated by Flopy 3.9.3
         1         0 
         1         0 # stress period 1
         4        13        13       -150000.0
        -1         0 # stress period 2
        -1         0 # stress period 3
