# File generated by Flopy version 3.9.3 on 08/07/2025 at 08:31:59.
BEGIN options
END options

BEGIN griddata
  strt  LAYERED
    INTERNAL  FACTOR  1.0
          90.00000000      90.00000000      90.00000000      90.00000000      90.00000000      90.00000000      90.00000000      90.00000000      90.00000000      90.00000000      90.00000000      90.00000000      90.00000000      90.00000000      90.00000000      90.00000000      90.00000000      90.00000000      90.00000000      90.00000000      90.00000000      90.00000000      90.00000000      90.00000000      90.00000000      90.00000000      90.00000000      90.00000000      90.00000000      90.00000000
          90.00000000      90.00000000      90.00000000      90.00000000      90.00000000      90.00000000      90.00000000      90.00000000      90.00000000      90.00000000      90.00000000      90.00000000      90.00000000      90.00000000      90.00000000      90.00000000      90.00000000      90.00000000      90.00000000      90.00000000      90.00000000      90.00000000      90.00000000      90.00000000      90.00000000      90.00000000      90.00000000      90.00000000      90.00000000      90.00000000
          90.00000000      90.00000000      90.00000000      90.00000000      90.00000000      90.00000000      90.00000000      90.00000000      90.00000000      90.00000000      90.00000000      90.00000000      90.00000000      90.00000000      90.00000000      90.00000000      90.00000000      90.00000000      90.00000000      90.00000000      90.00000000      90.00000000      90.00000000      90.00000000      90.00000000      90.00000000      90.00000000      90.00000000      90.00000000      90.00000000
          90.00000000      90.00000000      90.00000000      90.00000000      90.00000000      90.00000000      90.00000000      90.00000000      90.00000000      90.00000000      90.00000000      90.00000000      90.00000000      90.00000000      90.00000000      90.00000000      90.00000000      90.00000000      90.00000000      90.00000000      90.00000000      90.00000000      90.00000000      90.00000000      90.00000000      90.00000000      90.00000000      90.00000000      90.00000000      90.00000000
          90.00000000      90.00000000      90.00000000      90.00000000      90.00000000      90.00000000      90.00000000      90.00000000      90.00000000      90.00000000      90.00000000      90.00000000      90.00000000      90.00000000      90.00000000      90.00000000      90.00000000      90.00000000      90.00000000      90.00000000      90.00000000      90.00000000      90.00000000      90.00000000      90.00000000      90.00000000      90.00000000      90.00000000      90.00000000      90.00000000
          90.00000000      90.00000000      90.00000000      90.00000000      90.00000000      90.00000000      90.00000000      90.00000000      90.00000000      90.00000000      90.00000000      90.00000000      90.00000000      90.00000000      90.00000000      90.00000000      90.00000000      90.00000000      90.00000000      90.00000000      90.00000000      90.00000000      90.00000000      90.00000000      90.00000000      90.00000000      90.00000000      90.00000000      90.00000000      90.00000000
          90.00000000      90.00000000      90.00000000      90.00000000      90.00000000      90.00000000      90.00000000      90.00000000      90.00000000      90.00000000      90.00000000      90.00000000      90.00000000      90.00000000      90.00000000      90.00000000      90.00000000      90.00000000      90.00000000      90.00000000      90.00000000      90.00000000      90.00000000      90.00000000      90.00000000      90.00000000      90.00000000      90.00000000      90.00000000      90.00000000
          90.00000000      90.00000000      90.00000000      90.00000000      90.00000000      90.00000000      90.00000000      90.00000000      90.00000000      90.00000000      90.00000000      90.00000000      90.00000000      90.00000000      90.00000000      90.00000000      90.00000000      90.00000000      90.00000000      90.00000000      90.00000000      90.00000000      90.00000000      90.00000000      90.00000000      90.00000000      90.00000000      90.00000000      90.00000000      90.00000000
          90.00000000      90.00000000      90.00000000      90.00000000      90.00000000      90.00000000      90.00000000      90.00000000      90.00000000      90.00000000      90.00000000      90.00000000      90.00000000      90.00000000      90.00000000      90.00000000      90.00000000      90.00000000      90.00000000      90.00000000      90.00000000      90.00000000      90.00000000      90.00000000      90.00000000      90.00000000      90.00000000      90.00000000      90.00000000      90.00000000
          90.00000000      90.00000000      90.00000000      90.00000000      90.00000000      90.00000000      90.00000000      90.00000000      90.00000000      90.00000000      90.00000000      90.00000000      90.00000000      90.00000000      90.00000000      90.00000000      90.00000000      90.00000000      90.00000000      90.00000000      90.00000000      90.00000000      90.00000000      90.00000000      90.00000000      90.00000000      90.00000000      90.00000000      90.00000000      90.00000000
          90.00000000      90.00000000      90.00000000      90.00000000      90.00000000      90.00000000      90.00000000      90.00000000      90.00000000      90.00000000      90.00000000      90.00000000      90.00000000      90.00000000      90.00000000      90.00000000      90.00000000      90.00000000      90.00000000      90.00000000      90.00000000      90.00000000      90.00000000      90.00000000      90.00000000      90.00000000      90.00000000      90.00000000      90.00000000      90.00000000
          90.00000000      90.00000000      90.00000000      90.00000000      90.00000000      90.00000000      90.00000000      90.00000000      90.00000000      90.00000000      90.00000000      90.00000000      90.00000000      90.00000000      90.00000000      90.00000000      90.00000000      90.00000000      90.00000000      90.00000000      90.00000000      90.00000000      90.00000000      90.00000000      90.00000000      90.00000000      90.00000000      90.00000000      90.00000000      90.00000000
          90.00000000      90.00000000      90.00000000      90.00000000      90.00000000      90.00000000      90.00000000      90.00000000      90.00000000      90.00000000      90.00000000      90.00000000      90.00000000      90.00000000      90.00000000      90.00000000      90.00000000      90.00000000      90.00000000      90.00000000      90.00000000      90.00000000      90.00000000      90.00000000      90.00000000      90.00000000      90.00000000      90.00000000      90.00000000      90.00000000
          90.00000000      90.00000000      90.00000000      90.00000000      90.00000000      90.00000000      90.00000000      90.00000000      90.00000000      90.00000000      90.00000000      90.00000000      90.00000000      90.00000000      90.00000000      90.00000000      90.00000000      90.00000000      90.00000000      90.00000000      90.00000000      90.00000000      90.00000000      90.00000000      90.00000000      90.00000000      90.00000000      90.00000000      90.00000000      90.00000000
          90.00000000      90.00000000      90.00000000      90.00000000      90.00000000      90.00000000      90.00000000      90.00000000      90.00000000      90.00000000      90.00000000      90.00000000      90.00000000      90.00000000      90.00000000      90.00000000      90.00000000      90.00000000      90.00000000      90.00000000      90.00000000      90.00000000      90.00000000      90.00000000      90.00000000      90.00000000      90.00000000      90.00000000      90.00000000      90.00000000
          90.00000000      90.00000000      90.00000000      90.00000000      90.00000000      90.00000000      90.00000000      90.00000000      90.00000000      90.00000000      90.00000000      90.00000000      90.00000000      90.00000000      90.00000000      90.00000000      90.00000000      90.00000000      90.00000000      90.00000000      90.00000000      90.00000000      90.00000000      90.00000000      90.00000000      90.00000000      90.00000000      90.00000000      90.00000000      90.00000000
          90.00000000      90.00000000      90.00000000      90.00000000      90.00000000      90.00000000      90.00000000      90.00000000      90.00000000      90.00000000      90.00000000      90.00000000      90.00000000      90.00000000      90.00000000      90.00000000      90.00000000      90.00000000      90.00000000      90.00000000      90.00000000      90.00000000      90.00000000      90.00000000      90.00000000      90.00000000      90.00000000      90.00000000      90.00000000      90.00000000
          90.00000000      90.00000000      90.00000000      90.00000000      90.00000000      90.00000000      90.00000000      90.00000000      90.00000000      90.00000000      90.00000000      90.00000000      90.00000000      90.00000000      90.00000000      90.00000000      90.00000000      90.00000000      90.00000000      90.00000000      90.00000000      90.00000000      90.00000000      90.00000000      90.00000000      90.00000000      90.00000000      90.00000000      90.00000000      90.00000000
          90.00000000      90.00000000      90.00000000      90.00000000      90.00000000      90.00000000      90.00000000      90.00000000      90.00000000      90.00000000      90.00000000      90.00000000      90.00000000      90.00000000      90.00000000      90.00000000      90.00000000      90.00000000      90.00000000      90.00000000      90.00000000      90.00000000      90.00000000      90.00000000      90.00000000      90.00000000      90.00000000      90.00000000      90.00000000      90.00000000
          90.00000000      90.00000000      90.00000000      90.00000000      90.00000000      90.00000000      90.00000000      90.00000000      90.00000000      90.00000000      90.00000000      90.00000000      90.00000000      90.00000000      90.00000000      90.00000000      90.00000000      90.00000000      90.00000000      90.00000000      90.00000000      90.00000000      90.00000000      90.00000000      90.00000000      90.00000000      90.00000000      90.00000000      90.00000000      90.00000000
    INTERNAL  FACTOR  1.0
          90.00000000      90.00000000      90.00000000      90.00000000      90.00000000      90.00000000      90.00000000      90.00000000      90.00000000      90.00000000      90.00000000      90.00000000      90.00000000      90.00000000      90.00000000      90.00000000      90.00000000      90.00000000      90.00000000      90.00000000      90.00000000      90.00000000      90.00000000      90.00000000      90.00000000      90.00000000      90.00000000      90.00000000      90.00000000      90.00000000
          90.00000000      90.00000000      90.00000000      90.00000000      90.00000000      90.00000000      90.00000000      90.00000000      90.00000000      90.00000000      90.00000000      90.00000000      90.00000000      90.00000000      90.00000000      90.00000000      90.00000000      90.00000000      90.00000000      90.00000000      90.00000000      90.00000000      90.00000000      90.00000000      90.00000000      90.00000000      90.00000000      90.00000000      90.00000000      90.00000000
          90.00000000      90.00000000      90.00000000      90.00000000      90.00000000      90.00000000      90.00000000      90.00000000      90.00000000      90.00000000      90.00000000      90.00000000      90.00000000      90.00000000      90.00000000      90.00000000      90.00000000      90.00000000      90.00000000      90.00000000      90.00000000      90.00000000      90.00000000      90.00000000      90.00000000      90.00000000      90.00000000      90.00000000      90.00000000      90.00000000
          90.00000000      90.00000000      90.00000000      90.00000000      90.00000000      90.00000000      90.00000000      90.00000000      90.00000000      90.00000000      90.00000000      90.00000000      90.00000000      90.00000000      90.00000000      90.00000000      90.00000000      90.00000000      90.00000000      90.00000000      90.00000000      90.00000000      90.00000000      90.00000000      90.00000000      90.00000000      90.00000000      90.00000000      90.00000000      90.00000000
          90.00000000      90.00000000      90.00000000      90.00000000      90.00000000      90.00000000      90.00000000      90.00000000      90.00000000      90.00000000      90.00000000      90.00000000      90.00000000      90.00000000      90.00000000      90.00000000      90.00000000      90.00000000      90.00000000      90.00000000      90.00000000      90.00000000      90.00000000      90.00000000      90.00000000      90.00000000      90.00000000      90.00000000      90.00000000      90.00000000
          90.00000000      90.00000000      90.00000000      90.00000000      90.00000000      90.00000000      90.00000000      90.00000000      90.00000000      90.00000000      90.00000000      90.00000000      90.00000000      90.00000000      90.00000000      90.00000000      90.00000000      90.00000000      90.00000000      90.00000000      90.00000000      90.00000000      90.00000000      90.00000000      90.00000000      90.00000000      90.00000000      90.00000000      90.00000000      90.00000000
          90.00000000      90.00000000      90.00000000      90.00000000      90.00000000      90.00000000      90.00000000      90.00000000      90.00000000      90.00000000      90.00000000      90.00000000      90.00000000      90.00000000      90.00000000      90.00000000      90.00000000      90.00000000      90.00000000      90.00000000      90.00000000      90.00000000      90.00000000      90.00000000      90.00000000      90.00000000      90.00000000      90.00000000      90.00000000      90.00000000
          90.00000000      90.00000000      90.00000000      90.00000000      90.00000000      90.00000000      90.00000000      90.00000000      90.00000000      90.00000000      90.00000000      90.00000000      90.00000000      90.00000000      90.00000000      90.00000000      90.00000000      90.00000000      90.00000000      90.00000000      90.00000000      90.00000000      90.00000000      90.00000000      90.00000000      90.00000000      90.00000000      90.00000000      90.00000000      90.00000000
          90.00000000      90.00000000      90.00000000      90.00000000      90.00000000      90.00000000      90.00000000      90.00000000      90.00000000      90.00000000      90.00000000      90.00000000      90.00000000      90.00000000      90.00000000      90.00000000      90.00000000      90.00000000      90.00000000      90.00000000      90.00000000      90.00000000      90.00000000      90.00000000      90.00000000      90.00000000      90.00000000      90.00000000      90.00000000      90.00000000
          90.00000000      90.00000000      90.00000000      90.00000000      90.00000000      90.00000000      90.00000000      90.00000000      90.00000000      90.00000000      90.00000000      90.00000000      90.00000000      90.00000000      90.00000000      90.00000000      90.00000000      90.00000000      90.00000000      90.00000000      90.00000000      90.00000000      90.00000000      90.00000000      90.00000000      90.00000000      90.00000000      90.00000000      90.00000000      90.00000000
          90.00000000      90.00000000      90.00000000      90.00000000      90.00000000      90.00000000      90.00000000      90.00000000      90.00000000      90.00000000      90.00000000      90.00000000      90.00000000      90.00000000      90.00000000      90.00000000      90.00000000      90.00000000      90.00000000      90.00000000      90.00000000      90.00000000      90.00000000      90.00000000      90.00000000      90.00000000      90.00000000      90.00000000      90.00000000      90.00000000
          90.00000000      90.00000000      90.00000000      90.00000000      90.00000000      90.00000000      90.00000000      90.00000000      90.00000000      90.00000000      90.00000000      90.00000000      90.00000000      90.00000000      90.00000000      90.00000000      90.00000000      90.00000000      90.00000000      90.00000000      90.00000000      90.00000000      90.00000000      90.00000000      90.00000000      90.00000000      90.00000000      90.00000000      90.00000000      90.00000000
          90.00000000      90.00000000      90.00000000      90.00000000      90.00000000      90.00000000      90.00000000      90.00000000      90.00000000      90.00000000      90.00000000      90.00000000      90.00000000      90.00000000      90.00000000      90.00000000      90.00000000      90.00000000      90.00000000      90.00000000      90.00000000      90.00000000      90.00000000      90.00000000      90.00000000      90.00000000      90.00000000      90.00000000      90.00000000      90.00000000
          90.00000000      90.00000000      90.00000000      90.00000000      90.00000000      90.00000000      90.00000000      90.00000000      90.00000000      90.00000000      90.00000000      90.00000000      90.00000000      90.00000000      90.00000000      90.00000000      90.00000000      90.00000000      90.00000000      90.00000000      90.00000000      90.00000000      90.00000000      90.00000000      90.00000000      90.00000000      90.00000000      90.00000000      90.00000000      90.00000000
          90.00000000      90.00000000      90.00000000      90.00000000      90.00000000      90.00000000      90.00000000      90.00000000      90.00000000      90.00000000      90.00000000      90.00000000      90.00000000      90.00000000      90.00000000      90.00000000      90.00000000      90.00000000      90.00000000      90.00000000      90.00000000      90.00000000      90.00000000      90.00000000      90.00000000      90.00000000      90.00000000      90.00000000      90.00000000      90.00000000
          90.00000000      90.00000000      90.00000000      90.00000000      90.00000000      90.00000000      90.00000000      90.00000000      90.00000000      90.00000000      90.00000000      90.00000000      90.00000000      90.00000000      90.00000000      90.00000000      90.00000000      90.00000000      90.00000000      90.00000000      90.00000000      90.00000000      90.00000000      90.00000000      90.00000000      90.00000000      90.00000000      90.00000000      90.00000000      90.00000000
          90.00000000      90.00000000      90.00000000      90.00000000      90.00000000      90.00000000      90.00000000      90.00000000      90.00000000      90.00000000      90.00000000      90.00000000      90.00000000      90.00000000      90.00000000      90.00000000      90.00000000      90.00000000      90.00000000      90.00000000      90.00000000      90.00000000      90.00000000      90.00000000      90.00000000      90.00000000      90.00000000      90.00000000      90.00000000      90.00000000
          90.00000000      90.00000000      90.00000000      90.00000000      90.00000000      90.00000000      90.00000000      90.00000000      90.00000000      90.00000000      90.00000000      90.00000000      90.00000000      90.00000000      90.00000000      90.00000000      90.00000000      90.00000000      90.00000000      90.00000000      90.00000000      90.00000000      90.00000000      90.00000000      90.00000000      90.00000000      90.00000000      90.00000000      90.00000000      90.00000000
          90.00000000      90.00000000      90.00000000      90.00000000      90.00000000      90.00000000      90.00000000      90.00000000      90.00000000      90.00000000      90.00000000      90.00000000      90.00000000      90.00000000      90.00000000      90.00000000      90.00000000      90.00000000      90.00000000      90.00000000      90.00000000      90.00000000      90.00000000      90.00000000      90.00000000      90.00000000      90.00000000      90.00000000      90.00000000      90.00000000
          90.00000000      90.00000000      90.00000000      90.00000000      90.00000000      90.00000000      90.00000000      90.00000000      90.00000000      90.00000000      90.00000000      90.00000000      90.00000000      90.00000000      90.00000000      90.00000000      90.00000000      90.00000000      90.00000000      90.00000000      90.00000000      90.00000000      90.00000000      90.00000000      90.00000000      90.00000000      90.00000000      90.00000000      90.00000000      90.00000000
    INTERNAL  FACTOR  1.0
          90.00000000      90.00000000      90.00000000      90.00000000      90.00000000      90.00000000      90.00000000      90.00000000      90.00000000      90.00000000      90.00000000      90.00000000      90.00000000      90.00000000      90.00000000      90.00000000      90.00000000      90.00000000      90.00000000      90.00000000      90.00000000      90.00000000      90.00000000      90.00000000      90.00000000      90.00000000      90.00000000      90.00000000      90.00000000      90.00000000
          90.00000000      90.00000000      90.00000000      90.00000000      90.00000000      90.00000000      90.00000000      90.00000000      90.00000000      90.00000000      90.00000000      90.00000000      90.00000000      90.00000000      90.00000000      90.00000000      90.00000000      90.00000000      90.00000000      90.00000000      90.00000000      90.00000000      90.00000000      90.00000000      90.00000000      90.00000000      90.00000000      90.00000000      90.00000000      90.00000000
          90.00000000      90.00000000      90.00000000      90.00000000      90.00000000      90.00000000      90.00000000      90.00000000      90.00000000      90.00000000      90.00000000      90.00000000      90.00000000      90.00000000      90.00000000      90.00000000      90.00000000      90.00000000      90.00000000      90.00000000      90.00000000      90.00000000      90.00000000      90.00000000      90.00000000      90.00000000      90.00000000      90.00000000      90.00000000      90.00000000
          90.00000000      90.00000000      90.00000000      90.00000000      90.00000000      90.00000000      90.00000000      90.00000000      90.00000000      90.00000000      90.00000000      90.00000000      90.00000000      90.00000000      90.00000000      90.00000000      90.00000000      90.00000000      90.00000000      90.00000000      90.00000000      90.00000000      90.00000000      90.00000000      90.00000000      90.00000000      90.00000000      90.00000000      90.00000000      90.00000000
          90.00000000      90.00000000      90.00000000      90.00000000      90.00000000      90.00000000      90.00000000      90.00000000      90.00000000      90.00000000      90.00000000      90.00000000      90.00000000      90.00000000      90.00000000      90.00000000      90.00000000      90.00000000      90.00000000      90.00000000      90.00000000      90.00000000      90.00000000      90.00000000      90.00000000      90.00000000      90.00000000      90.00000000      90.00000000      90.00000000
          90.00000000      90.00000000      90.00000000      90.00000000      90.00000000      90.00000000      90.00000000      90.00000000      90.00000000      90.00000000      90.00000000      90.00000000      90.00000000      90.00000000      90.00000000      90.00000000      90.00000000      90.00000000      90.00000000      90.00000000      90.00000000      90.00000000      90.00000000      90.00000000      90.00000000      90.00000000      90.00000000      90.00000000      90.00000000      90.00000000
          90.00000000      90.00000000      90.00000000      90.00000000      90.00000000      90.00000000      90.00000000      90.00000000      90.00000000      90.00000000      90.00000000      90.00000000      90.00000000      90.00000000      90.00000000      90.00000000      90.00000000      90.00000000      90.00000000      90.00000000      90.00000000      90.00000000      90.00000000      90.00000000      90.00000000      90.00000000      90.00000000      90.00000000      90.00000000      90.00000000
          90.00000000      90.00000000      90.00000000      90.00000000      90.00000000      90.00000000      90.00000000      90.00000000      90.00000000      90.00000000      90.00000000      90.00000000      90.00000000      90.00000000      90.00000000      90.00000000      90.00000000      90.00000000      90.00000000      90.00000000      90.00000000      90.00000000      90.00000000      90.00000000      90.00000000      90.00000000      90.00000000      90.00000000      90.00000000      90.00000000
          90.00000000      90.00000000      90.00000000      90.00000000      90.00000000      90.00000000      90.00000000      90.00000000      90.00000000      90.00000000      90.00000000      90.00000000      90.00000000      90.00000000      90.00000000      90.00000000      90.00000000      90.00000000      90.00000000      90.00000000      90.00000000      90.00000000      90.00000000      90.00000000      90.00000000      90.00000000      90.00000000      90.00000000      90.00000000      90.00000000
          90.00000000      90.00000000      90.00000000      90.00000000      90.00000000      90.00000000      90.00000000      90.00000000      90.00000000      90.00000000      90.00000000      90.00000000      90.00000000      90.00000000      90.00000000      90.00000000      90.00000000      90.00000000      90.00000000      90.00000000      90.00000000      90.00000000      90.00000000      90.00000000      90.00000000      90.00000000      90.00000000      90.00000000      90.00000000      90.00000000
          90.00000000      90.00000000      90.00000000      90.00000000      90.00000000      90.00000000      90.00000000      90.00000000      90.00000000      90.00000000      90.00000000      90.00000000      90.00000000      90.00000000      90.00000000      90.00000000      90.00000000      90.00000000      90.00000000      90.00000000      90.00000000      90.00000000      90.00000000      90.00000000      90.00000000      90.00000000      90.00000000      90.00000000      90.00000000      90.00000000
          90.00000000      90.00000000      90.00000000      90.00000000      90.00000000      90.00000000      90.00000000      90.00000000      90.00000000      90.00000000      90.00000000      90.00000000      90.00000000      90.00000000      90.00000000      90.00000000      90.00000000      90.00000000      90.00000000      90.00000000      90.00000000      90.00000000      90.00000000      90.00000000      90.00000000      90.00000000      90.00000000      90.00000000      90.00000000      90.00000000
          90.00000000      90.00000000      90.00000000      90.00000000      90.00000000      90.00000000      90.00000000      90.00000000      90.00000000      90.00000000      90.00000000      90.00000000      90.00000000      90.00000000      90.00000000      90.00000000      90.00000000      90.00000000      90.00000000      90.00000000      90.00000000      90.00000000      90.00000000      90.00000000      90.00000000      90.00000000      90.00000000      90.00000000      90.00000000      90.00000000
          90.00000000      90.00000000      90.00000000      90.00000000      90.00000000      90.00000000      90.00000000      90.00000000      90.00000000      90.00000000      90.00000000      90.00000000      90.00000000      90.00000000      90.00000000      90.00000000      90.00000000      90.00000000      90.00000000      90.00000000      90.00000000      90.00000000      90.00000000      90.00000000      90.00000000      90.00000000      90.00000000      90.00000000      90.00000000      90.00000000
          90.00000000      90.00000000      90.00000000      90.00000000      90.00000000      90.00000000      90.00000000      90.00000000      90.00000000      90.00000000      90.00000000      90.00000000      90.00000000      90.00000000      90.00000000      90.00000000      90.00000000      90.00000000      90.00000000      90.00000000      90.00000000      90.00000000      90.00000000      90.00000000      90.00000000      90.00000000      90.00000000      90.00000000      90.00000000      90.00000000
          90.00000000      90.00000000      90.00000000      90.00000000      90.00000000      90.00000000      90.00000000      90.00000000      90.00000000      90.00000000      90.00000000      90.00000000      90.00000000      90.00000000      90.00000000      90.00000000      90.00000000      90.00000000      90.00000000      90.00000000      90.00000000      90.00000000      90.00000000      90.00000000      90.00000000      90.00000000      90.00000000      90.00000000      90.00000000      90.00000000
          90.00000000      90.00000000      90.00000000      90.00000000      90.00000000      90.00000000      90.00000000      90.00000000      90.00000000      90.00000000      90.00000000      90.00000000      90.00000000      90.00000000      90.00000000      90.00000000      90.00000000      90.00000000      90.00000000      90.00000000      90.00000000      90.00000000      90.00000000      90.00000000      90.00000000      90.00000000      90.00000000      90.00000000      90.00000000      90.00000000