# File generated by Flopy version 3.9.3 on 08/08/2025 at 18:31:02.
BEGIN options
  PRINT_INPUT
  PRINT_FLOWS
  SAVE_FLOWS
END options

BEGIN packages
  DIS6  mf6_demo.dis  dis
  IC6  mf6_demo.ic  ic
  NPF6  mf6_demo.npf  npf
  STO6  mf6_demo.sto  sto
  CHD6  mf6_demo.chd  chd_0
  WEL6  mf6_demo.wel  wel_0
  RCH6  mf6_demo.rch  rch_0
  OC6  mf6_demo.oc  oc
END packages

