# File generated by Flopy version 3.9.3 on 08/08/2025 at 09:11:25.
BEGIN options
  BUDGET  FILEOUT  mf6_demo.cbc
  HEAD  FILEOUT  mf6_demo.hds
  HEAD  PRINT_FORMAT  COLUMNS  10  WIDTH  15  DIGITS  6  GENERAL
END options

BEGIN period  1
  SAVE  HEAD  ALL
  SAVE  BUDGET  ALL
  PRINT  HEAD  LAST
  PRINT  BUDGET  ALL
END period  1

