# File generated by Flopy version 3.9.3 on 08/07/2025 at 08:31:59.
BEGIN options
  SAVE_SPECIFIC_DISCHARGE
  SAVE_SATURATION
END options

BEGIN griddata
  icelltype
    CONSTANT  1
  k  LAYERED
    CONSTANT      10.00000000
    CONSTANT       5.00000000
    CONSTANT       1.00000000
  k33  LAYERED
    CONSTANT       1.00000000
    CONSTANT       0.50000000
    CONSTANT       0.10000000
END griddata

