# File generated by Flopy version 3.9.3 on 08/08/2025 at 09:11:25.
BEGIN options
  PRINT_INPUT
  PRINT_FLOWS
END options

BEGIN dimensions
  MAXBOUND  40
END dimensions

BEGIN period  1
  1 1 1 9.50000000E+01
  1 1 30 8.50000000E+01
  1 2 1 9.50000000E+01
  1 2 30 8.50000000E+01
  1 3 1 9.50000000E+01
  1 3 30 8.50000000E+01
  1 4 1 9.50000000E+01
  1 4 30 8.50000000E+01
  1 5 1 9.50000000E+01
  1 5 30 8.50000000E+01
  1 6 1 9.50000000E+01
  1 6 30 8.50000000E+01
  1 7 1 9.50000000E+01
  1 7 30 8.50000000E+01
  1 8 1 9.50000000E+01
  1 8 30 8.50000000E+01
  1 9 1 9.50000000E+01
  1 9 30 8.50000000E+01
  1 10 1 9.50000000E+01
  1 10 30 8.50000000E+01
  1 11 1 9.50000000E+01
  1 11 30 8.50000000E+01
  1 12 1 9.50000000E+01
  1 12 30 8.50000000E+01
  1 13 1 9.50000000E+01
  1 13 30 8.50000000E+01
  1 14 1 9.50000000E+01
  1 14 30 8.50000000E+01
  1 15 1 9.50000000E+01
  1 15 30 8.50000000E+01
  1 16 1 9.50000000E+01
  1 16 30 8.50000000E+01
  1 17 1 9.50000000E+01
  1 17 30 8.50000000E+01
  1 18 1 9.50000000E+01
  1 18 30 8.50000000E+01
  1 19 1 9.50000000E+01
  1 19 30 8.50000000E+01
  1 20 1 9.50000000E+01
  1 20 30 8.50000000E+01
END period  1

