# File generated by Flopy version 3.9.3 on 08/08/2025 at 09:11:25.
BEGIN options
  PRINT_OPTION  summary
  COMPLEXITY  simple
END options

BEGIN nonlinear
  OUTER_DVCLOSE  1.00000000E-04
END nonlinear

BEGIN linear
  INNER_DVCLOSE  1.00000000E-05
  inner_rclose  1.00000000E-04  STRICT
END linear

