# File generated by Flopy version 3.9.3 on 08/08/2025 at 18:31:02.
BEGIN options
  PRINT_INPUT
  PRINT_FLOWS
END options

BEGIN dimensions
  MAXBOUND  600
END dimensions

BEGIN period  1
  1 1 1 1.00000000E-03
  1 1 2 1.00000000E-03
  1 1 3 1.00000000E-03
  1 1 4 1.00000000E-03
  1 1 5 1.00000000E-03
  1 1 6 1.00000000E-03
  1 1 7 1.00000000E-03
  1 1 8 1.00000000E-03
  1 1 9 1.00000000E-03
  1 1 10 1.00000000E-03
  1 1 11 1.00000000E-03
  1 1 12 1.00000000E-03
  1 1 13 1.00000000E-03
  1 1 14 1.00000000E-03
  1 1 15 1.00000000E-03
  1 1 16 1.00000000E-03
  1 1 17 1.00000000E-03
  1 1 18 1.00000000E-03
  1 1 19 1.00000000E-03
  1 1 20 1.00000000E-03
  1 1 21 1.00000000E-03
  1 1 22 1.00000000E-03
  1 1 23 1.00000000E-03
  1 1 24 1.00000000E-03
  1 1 25 1.00000000E-03
  1 1 26 1.00000000E-03
  1 1 27 1.00000000E-03
  1 1 28 1.00000000E-03
  1 1 29 1.00000000E-03
  1 1 30 1.00000000E-03
  1 2 1 1.00000000E-03
  1 2 2 1.00000000E-03
  1 2 3 1.00000000E-03
  1 2 4 1.00000000E-03
  1 2 5 1.00000000E-03
  1 2 6 1.00000000E-03
  1 2 7 1.00000000E-03
  1 2 8 1.00000000E-03
  1 2 9 1.00000000E-03
  1 2 10 1.00000000E-03
  1 2 11 1.00000000E-03
  1 2 12 1.00000000E-03
  1 2 13 1.00000000E-03
  1 2 14 1.00000000E-03
  1 2 15 1.00000000E-03
  1 2 16 1.00000000E-03
  1 2 17 1.00000000E-03
  1 2 18 1.00000000E-03
  1 2 19 1.00000000E-03
  1 2 20 1.00000000E-03
  1 2 21 1.00000000E-03
  1 2 22 1.00000000E-03
  1 2 23 1.00000000E-03
  1 2 24 1.00000000E-03
  1 2 25 1.00000000E-03
  1 2 26 1.00000000E-03
  1 2 27 1.00000000E-03
  1 2 28 1.00000000E-03
  1 2 29 1.00000000E-03
  1 2 30 1.00000000E-03
  1 3 1 1.00000000E-03
  1 3 2 1.00000000E-03
  1 3 3 1.00000000E-03
  1 3 4 1.00000000E-03
  1 3 5 1.00000000E-03
  1 3 6 1.00000000E-03
  1 3 7 1.00000000E-03
  1 3 8 1.00000000E-03
  1 3 9 1.00000000E-03
  1 3 10 1.00000000E-03
  1 3 11 1.00000000E-03
  1 3 12 1.00000000E-03
  1 3 13 1.00000000E-03
  1 3 14 1.00000000E-03
  1 3 15 1.00000000E-03
  1 3 16 1.00000000E-03
  1 3 17 1.00000000E-03
  1 3 18 1.00000000E-03
  1 3 19 1.00000000E-03
  1 3 20 1.00000000E-03
  1 3 21 1.00000000E-03
  1 3 22 1.00000000E-03
  1 3 23 1.00000000E-03
  1 3 24 1.00000000E-03
  1 3 25 1.00000000E-03
  1 3 26 1.00000000E-03
  1 3 27 1.00000000E-03
  1 3 28 1.00000000E-03
  1 3 29 1.00000000E-03
  1 3 30 1.00000000E-03
  1 4 1 1.00000000E-03
  1 4 2 1.00000000E-03
  1 4 3 1.00000000E-03
  1 4 4 1.00000000E-03
  1 4 5 1.00000000E-03
  1 4 6 1.00000000E-03
  1 4 7 1.00000000E-03
  1 4 8 1.00000000E-03
  1 4 9 1.00000000E-03
  1 4 10 1.00000000E-03
  1 4 11 1.00000000E-03
  1 4 12 1.00000000E-03
  1 4 13 1.00000000E-03
  1 4 14 1.00000000E-03
  1 4 15 1.00000000E-03
  1 4 16 1.00000000E-03
  1 4 17 1.00000000E-03
  1 4 18 1.00000000E-03
  1 4 19 1.00000000E-03
  1 4 20 1.00000000E-03
  1 4 21 1.00000000E-03
  1 4 22 1.00000000E-03
  1 4 23 1.00000000E-03
  1 4 24 1.00000000E-03
  1 4 25 1.00000000E-03
  1 4 26 1.00000000E-03
  1 4 27 1.00000000E-03
  1 4 28 1.00000000E-03
  1 4 29 1.00000000E-03
  1 4 30 1.00000000E-03
  1 5 1 1.00000000E-03
  1 5 2 1.00000000E-03
  1 5 3 1.00000000E-03
  1 5 4 1.00000000E-03
  1 5 5 1.00000000E-03
  1 5 6 1.00000000E-03
  1 5 7 1.00000000E-03
  1 5 8 1.00000000E-03
  1 5 9 1.00000000E-03
  1 5 10 1.00000000E-03
  1 5 11 1.00000000E-03
  1 5 12 1.00000000E-03
  1 5 13 1.00000000E-03
  1 5 14 1.00000000E-03
  1 5 15 1.00000000E-03
  1 5 16 1.00000000E-03
  1 5 17 1.00000000E-03
  1 5 18 1.00000000E-03
  1 5 19 1.00000000E-03
  1 5 20 1.00000000E-03
  1 5 21 1.00000000E-03
  1 5 22 1.00000000E-03
  1 5 23 1.00000000E-03
  1 5 24 1.00000000E-03
  1 5 25 1.00000000E-03
  1 5 26 1.00000000E-03
  1 5 27 1.00000000E-03
  1 5 28 1.00000000E-03
  1 5 29 1.00000000E-03
  1 5 30 1.00000000E-03
  1 6 1 1.00000000E-03
  1 6 2 1.00000000E-03
  1 6 3 1.00000000E-03
  1 6 4 1.00000000E-03
  1 6 5 1.00000000E-03
  1 6 6 1.00000000E-03
  1 6 7 1.00000000E-03
  1 6 8 1.00000000E-03
  1 6 9 1.00000000E-03
  1 6 10 1.00000000E-03
  1 6 11 1.00000000E-03
  1 6 12 1.00000000E-03
  1 6 13 1.00000000E-03
  1 6 14 1.00000000E-03
  1 6 15 1.00000000E-03
  1 6 16 1.00000000E-03
  1 6 17 1.00000000E-03
  1 6 18 1.00000000E-03
  1 6 19 1.00000000E-03
  1 6 20 1.00000000E-03
  1 6 21 1.00000000E-03
  1 6 22 1.00000000E-03
  1 6 23 1.00000000E-03
  1 6 24 1.00000000E-03
  1 6 25 1.00000000E-03
  1 6 26 1.00000000E-03
  1 6 27 1.00000000E-03
  1 6 28 1.00000000E-03
  1 6 29 1.00000000E-03
  1 6 30 1.00000000E-03
  1 7 1 1.00000000E-03
  1 7 2 1.00000000E-03
  1 7 3 1.00000000E-03
  1 7 4 1.00000000E-03
  1 7 5 1.00000000E-03
  1 7 6 1.00000000E-03
  1 7 7 1.00000000E-03
  1 7 8 1.00000000E-03
  1 7 9 1.00000000E-03
  1 7 10 1.00000000E-03
  1 7 11 1.00000000E-03
  1 7 12 1.00000000E-03
  1 7 13 1.00000000E-03
  1 7 14 1.00000000E-03
  1 7 15 1.00000000E-03
  1 7 16 1.00000000E-03
  1 7 17 1.00000000E-03
  1 7 18 1.00000000E-03
  1 7 19 1.00000000E-03
  1 7 20 1.00000000E-03
  1 7 21 1.00000000E-03
  1 7 22 1.00000000E-03
  1 7 23 1.00000000E-03
  1 7 24 1.00000000E-03
  1 7 25 1.00000000E-03
  1 7 26 1.00000000E-03
  1 7 27 1.00000000E-03
  1 7 28 1.00000000E-03
  1 7 29 1.00000000E-03
  1 7 30 1.00000000E-03
  1 8 1 1.00000000E-03
  1 8 2 1.00000000E-03
  1 8 3 1.00000000E-03
  1 8 4 1.00000000E-03
  1 8 5 1.00000000E-03
  1 8 6 1.00000000E-03
  1 8 7 1.00000000E-03
  1 8 8 1.00000000E-03
  1 8 9 1.00000000E-03
  1 8 10 1.00000000E-03
  1 8 11 1.00000000E-03
  1 8 12 1.00000000E-03
  1 8 13 1.00000000E-03
  1 8 14 1.00000000E-03
  1 8 15 1.00000000E-03
  1 8 16 1.00000000E-03
  1 8 17 1.00000000E-03
  1 8 18 1.00000000E-03
  1 8 19 1.00000000E-03
  1 8 20 1.00000000E-03
  1 8 21 1.00000000E-03
  1 8 22 1.00000000E-03
  1 8 23 1.00000000E-03
  1 8 24 1.00000000E-03
  1 8 25 1.00000000E-03
  1 8 26 1.00000000E-03
  1 8 27 1.00000000E-03
  1 8 28 1.00000000E-03
  1 8 29 1.00000000E-03
  1 8 30 1.00000000E-03
  1 9 1 1.00000000E-03
  1 9 2 1.00000000E-03
  1 9 3 1.00000000E-03
  1 9 4 1.00000000E-03
  1 9 5 1.00000000E-03
  1 9 6 1.00000000E-03
  1 9 7 1.00000000E-03
  1 9 8 1.00000000E-03
  1 9 9 1.00000000E-03
  1 9 10 1.00000000E-03
  1 9 11 1.00000000E-03
  1 9 12 1.00000000E-03
  1 9 13 1.00000000E-03
  1 9 14 1.00000000E-03
  1 9 15 1.00000000E-03
  1 9 16 1.00000000E-03
  1 9 17 1.00000000E-03
  1 9 18 1.00000000E-03
  1 9 19 1.00000000E-03
  1 9 20 1.00000000E-03
  1 9 21 1.00000000E-03
  1 9 22 1.00000000E-03
  1 9 23 1.00000000E-03
  1 9 24 1.00000000E-03
  1 9 25 1.00000000E-03
  1 9 26 1.00000000E-03
  1 9 27 1.00000000E-03
  1 9 28 1.00000000E-03
  1 9 29 1.00000000E-03
  1 9 30 1.00000000E-03
  1 10 1 1.00000000E-03
  1 10 2 1.00000000E-03
  1 10 3 1.00000000E-03
  1 10 4 1.00000000E-03
  1 10 5 1.00000000E-03
  1 10 6 1.00000000E-03
  1 10 7 1.00000000E-03
  1 10 8 1.00000000E-03
  1 10 9 1.00000000E-03
  1 10 10 1.00000000E-03
  1 10 11 1.00000000E-03
  1 10 12 1.00000000E-03
  1 10 13 1.00000000E-03
  1 10 14 1.00000000E-03
  1 10 15 1.00000000E-03
  1 10 16 1.00000000E-03
  1 10 17 1.00000000E-03
  1 10 18 1.00000000E-03
  1 10 19 1.00000000E-03
  1 10 20 1.00000000E-03
  1 10 21 1.00000000E-03
  1 10 22 1.00000000E-03
  1 10 23 1.00000000E-03
  1 10 24 1.00000000E-03
  1 10 25 1.00000000E-03
  1 10 26 1.00000000E-03
  1 10 27 1.00000000E-03
  1 10 28 1.00000000E-03
  1 10 29 1.00000000E-03
  1 10 30 1.00000000E-03
  1 11 1 1.00000000E-03
  1 11 2 1.00000000E-03
  1 11 3 1.00000000E-03
  1 11 4 1.00000000E-03
  1 11 5 1.00000000E-03
  1 11 6 1.00000000E-03
  1 11 7 1.00000000E-03
  1 11 8 1.00000000E-03
  1 11 9 1.00000000E-03
  1 11 10 1.00000000E-03
  1 11 11 1.00000000E-03
  1 11 12 1.00000000E-03
  1 11 13 1.00000000E-03
  1 11 14 1.00000000E-03
  1 11 15 1.00000000E-03
  1 11 16 1.00000000E-03
  1 11 17 1.00000000E-03
  1 11 18 1.00000000E-03
  1 11 19 1.00000000E-03
  1 11 20 1.00000000E-03
  1 11 21 1.00000000E-03
  1 11 22 1.00000000E-03
  1 11 23 1.00000000E-03
  1 11 24 1.00000000E-03
  1 11 25 1.00000000E-03
  1 11 26 1.00000000E-03
  1 11 27 1.00000000E-03
  1 11 28 1.00000000E-03
  1 11 29 1.00000000E-03
  1 11 30 1.00000000E-03
  1 12 1 1.00000000E-03
  1 12 2 1.00000000E-03
  1 12 3 1.00000000E-03
  1 12 4 1.00000000E-03
  1 12 5 1.00000000E-03
  1 12 6 1.00000000E-03
  1 12 7 1.00000000E-03
  1 12 8 1.00000000E-03
  1 12 9 1.00000000E-03
  1 12 10 1.00000000E-03
  1 12 11 1.00000000E-03
  1 12 12 1.00000000E-03
  1 12 13 1.00000000E-03
  1 12 14 1.00000000E-03
  1 12 15 1.00000000E-03
  1 12 16 1.00000000E-03
  1 12 17 1.00000000E-03
  1 12 18 1.00000000E-03
  1 12 19 1.00000000E-03
  1 12 20 1.00000000E-03
  1 12 21 1.00000000E-03
  1 12 22 1.00000000E-03
  1 12 23 1.00000000E-03
  1 12 24 1.00000000E-03
  1 12 25 1.00000000E-03
  1 12 26 1.00000000E-03
  1 12 27 1.00000000E-03
  1 12 28 1.00000000E-03
  1 12 29 1.00000000E-03
  1 12 30 1.00000000E-03
  1 13 1 1.00000000E-03
  1 13 2 1.00000000E-03
  1 13 3 1.00000000E-03
  1 13 4 1.00000000E-03
  1 13 5 1.00000000E-03
  1 13 6 1.00000000E-03
  1 13 7 1.00000000E-03
  1 13 8 1.00000000E-03
  1 13 9 1.00000000E-03
  1 13 10 1.00000000E-03
  1 13 11 1.00000000E-03
  1 13 12 1.00000000E-03
  1 13 13 1.00000000E-03
  1 13 14 1.00000000E-03
  1 13 15 1.00000000E-03
  1 13 16 1.00000000E-03
  1 13 17 1.00000000E-03
  1 13 18 1.00000000E-03
  1 13 19 1.00000000E-03
  1 13 20 1.00000000E-03
  1 13 21 1.00000000E-03
  1 13 22 1.00000000E-03
  1 13 23 1.00000000E-03
  1 13 24 1.00000000E-03
  1 13 25 1.00000000E-03
  1 13 26 1.00000000E-03
  1 13 27 1.00000000E-03
  1 13 28 1.00000000E-03
  1 13 29 1.00000000E-03
  1 13 30 1.00000000E-03
  1 14 1 1.00000000E-03
  1 14 2 1.00000000E-03
  1 14 3 1.00000000E-03
  1 14 4 1.00000000E-03
  1 14 5 1.00000000E-03
  1 14 6 1.00000000E-03
  1 14 7 1.00000000E-03
  1 14 8 1.00000000E-03
  1 14 9 1.00000000E-03
  1 14 10 1.00000000E-03
  1 14 11 1.00000000E-03
  1 14 12 1.00000000E-03
  1 14 13 1.00000000E-03
  1 14 14 1.00000000E-03
  1 14 15 1.00000000E-03
  1 14 16 1.00000000E-03
  1 14 17 1.00000000E-03
  1 14 18 1.00000000E-03
  1 14 19 1.00000000E-03
  1 14 20 1.00000000E-03
  1 14 21 1.00000000E-03
  1 14 22 1.00000000E-03
  1 14 23 1.00000000E-03
  1 14 24 1.00000000E-03
  1 14 25 1.00000000E-03
  1 14 26 1.00000000E-03
  1 14 27 1.00000000E-03
  1 14 28 1.00000000E-03
  1 14 29 1.00000000E-03
  1 14 30 1.00000000E-03
  1 15 1 1.00000000E-03
  1 15 2 1.00000000E-03
  1 15 3 1.00000000E-03
  1 15 4 1.00000000E-03
  1 15 5 1.00000000E-03
  1 15 6 1.00000000E-03
  1 15 7 1.00000000E-03
  1 15 8 1.00000000E-03
  1 15 9 1.00000000E-03
  1 15 10 1.00000000E-03
  1 15 11 1.00000000E-03
  1 15 12 1.00000000E-03
  1 15 13 1.00000000E-03
  1 15 14 1.00000000E-03
  1 15 15 1.00000000E-03
  1 15 16 1.00000000E-03
  1 15 17 1.00000000E-03
  1 15 18 1.00000000E-03
  1 15 19 1.00000000E-03
  1 15 20 1.00000000E-03
  1 15 21 1.00000000E-03
  1 15 22 1.00000000E-03
  1 15 23 1.00000000E-03
  1 15 24 1.00000000E-03
  1 15 25 1.00000000E-03
  1 15 26 1.00000000E-03
  1 15 27 1.00000000E-03
  1 15 28 1.00000000E-03
  1 15 29 1.00000000E-03
  1 15 30 1.00000000E-03
  1 16 1 1.00000000E-03
  1 16 2 1.00000000E-03
  1 16 3 1.00000000E-03
  1 16 4 1.00000000E-03
  1 16 5 1.00000000E-03
  1 16 6 1.00000000E-03
  1 16 7 1.00000000E-03
  1 16 8 1.00000000E-03
  1 16 9 1.00000000E-03
  1 16 10 1.00000000E-03
  1 16 11 1.00000000E-03
  1 16 12 1.00000000E-03
  1 16 13 1.00000000E-03
  1 16 14 1.00000000E-03
  1 16 15 1.00000000E-03
  1 16 16 1.00000000E-03
  1 16 17 1.00000000E-03
  1 16 18 1.00000000E-03
  1 16 19 1.00000000E-03
  1 16 20 1.00000000E-03
  1 16 21 1.00000000E-03
  1 16 22 1.00000000E-03
  1 16 23 1.00000000E-03
  1 16 24 1.00000000E-03
  1 16 25 1.00000000E-03
  1 16 26 1.00000000E-03
  1 16 27 1.00000000E-03
  1 16 28 1.00000000E-03
  1 16 29 1.00000000E-03
  1 16 30 1.00000000E-03
  1 17 1 1.00000000E-03
  1 17 2 1.00000000E-03
  1 17 3 1.00000000E-03
  1 17 4 1.00000000E-03
  1 17 5 1.00000000E-03
  1 17 6 1.00000000E-03
  1 17 7 1.00000000E-03
  1 17 8 1.00000000E-03
  1 17 9 1.00000000E-03
  1 17 10 1.00000000E-03
  1 17 11 1.00000000E-03
  1 17 12 1.00000000E-03
  1 17 13 1.00000000E-03
  1 17 14 1.00000000E-03
  1 17 15 1.00000000E-03
  1 17 16 1.00000000E-03
  1 17 17 1.00000000E-03
  1 17 18 1.00000000E-03
  1 17 19 1.00000000E-03
  1 17 20 1.00000000E-03
  1 17 21 1.00000000E-03
  1 17 22 1.00000000E-03
  1 17 23 1.00000000E-03
  1 17 24 1.00000000E-03
  1 17 25 1.00000000E-03
  1 17 26 1.00000000E-03
  1 17 27 1.00000000E-03
  1 17 28 1.00000000E-03
  1 17 29 1.00000000E-03
  1 17 30 1.00000000E-03
  1 18 1 1.00000000E-03
  1 18 2 1.00000000E-03
  1 18 3 1.00000000E-03
  1 18 4 1.00000000E-03
  1 18 5 1.00000000E-03
  1 18 6 1.00000000E-03
  1 18 7 1.00000000E-03
  1 18 8 1.00000000E-03
  1 18 9 1.00000000E-03
  1 18 10 1.00000000E-03
  1 18 11 1.00000000E-03
  1 18 12 1.00000000E-03
  1 18 13 1.00000000E-03
  1 18 14 1.00000000E-03
  1 18 15 1.00000000E-03
  1 18 16 1.00000000E-03
  1 18 17 1.00000000E-03
  1 18 18 1.00000000E-03
  1 18 19 1.00000000E-03
  1 18 20 1.00000000E-03
  1 18 21 1.00000000E-03
  1 18 22 1.00000000E-03
  1 18 23 1.00000000E-03
  1 18 24 1.00000000E-03
  1 18 25 1.00000000E-03
  1 18 26 1.00000000E-03
  1 18 27 1.00000000E-03
  1 18 28 1.00000000E-03
  1 18 29 1.00000000E-03
  1 18 30 1.00000000E-03
  1 19 1 1.00000000E-03
  1 19 2 1.00000000E-03
  1 19 3 1.00000000E-03
  1 19 4 1.00000000E-03
  1 19 5 1.00000000E-03
  1 19 6 1.00000000E-03
  1 19 7 1.00000000E-03
  1 19 8 1.00000000E-03
  1 19 9 1.00000000E-03
  1 19 10 1.00000000E-03
  1 19 11 1.00000000E-03
  1 19 12 1.00000000E-03
  1 19 13 1.00000000E-03
  1 19 14 1.00000000E-03
  1 19 15 1.00000000E-03
  1 19 16 1.00000000E-03
  1 19 17 1.00000000E-03
  1 19 18 1.00000000E-03
  1 19 19 1.00000000E-03
  1 19 20 1.00000000E-03
  1 19 21 1.00000000E-03
  1 19 22 1.00000000E-03
  1 19 23 1.00000000E-03
  1 19 24 1.00000000E-03
  1 19 25 1.00000000E-03
  1 19 26 1.00000000E-03
  1 19 27 1.00000000E-03
  1 19 28 1.00000000E-03
  1 19 29 1.00000000E-03
  1 19 30 1.00000000E-03
  1 20 1 1.00000000E-03
  1 20 2 1.00000000E-03
  1 20 3 1.00000000E-03
  1 20 4 1.00000000E-03
  1 20 5 1.00000000E-03
  1 20 6 1.00000000E-03
  1 20 7 1.00000000E-03
  1 20 8 1.00000000E-03
  1 20 9 1.00000000E-03
  1 20 10 1.00000000E-03
  1 20 11 1.00000000E-03
  1 20 12 1.00000000E-03
  1 20 13 1.00000000E-03
  1 20 14 1.00000000E-03
  1 20 15 1.00000000E-03
  1 20 16 1.00000000E-03
  1 20 17 1.00000000E-03
  1 20 18 1.00000000E-03
  1 20 19 1.00000000E-03
  1 20 20 1.00000000E-03
  1 20 21 1.00000000E-03
  1 20 22 1.00000000E-03
  1 20 23 1.00000000E-03
  1 20 24 1.00000000E-03
  1 20 25 1.00000000E-03
  1 20 26 1.00000000E-03
  1 20 27 1.00000000E-03
  1 20 28 1.00000000E-03
  1 20 29 1.00000000E-03
  1 20 30 1.00000000E-03
END period  1

BEGIN period  2
  1 1 1 3.00000000E-03
  1 1 2 3.00000000E-03
  1 1 3 3.00000000E-03
  1 1 4 3.00000000E-03
  1 1 5 3.00000000E-03
  1 1 6 3.00000000E-03
  1 1 7 3.00000000E-03
  1 1 8 3.00000000E-03
  1 1 9 3.00000000E-03
  1 1 10 3.00000000E-03
  1 1 11 3.00000000E-03
  1 1 12 3.00000000E-03
  1 1 13 3.00000000E-03
  1 1 14 3.00000000E-03
  1 1 15 3.00000000E-03
  1 1 16 3.00000000E-03
  1 1 17 3.00000000E-03
  1 1 18 3.00000000E-03
  1 1 19 3.00000000E-03
  1 1 20 3.00000000E-03
  1 1 21 3.00000000E-03
  1 1 22 3.00000000E-03
  1 1 23 3.00000000E-03
  1 1 24 3.00000000E-03
  1 1 25 3.00000000E-03
  1 1 26 3.00000000E-03
  1 1 27 3.00000000E-03
  1 1 28 3.00000000E-03
  1 1 29 3.00000000E-03
  1 1 30 3.00000000E-03
  1 2 1 3.00000000E-03
  1 2 2 3.00000000E-03
  1 2 3 3.00000000E-03
  1 2 4 3.00000000E-03
  1 2 5 3.00000000E-03
  1 2 6 3.00000000E-03
  1 2 7 3.00000000E-03
  1 2 8 3.00000000E-03
  1 2 9 3.00000000E-03
  1 2 10 3.00000000E-03
  1 2 11 3.00000000E-03
  1 2 12 3.00000000E-03
  1 2 13 3.00000000E-03
  1 2 14 3.00000000E-03
  1 2 15 3.00000000E-03
  1 2 16 3.00000000E-03
  1 2 17 3.00000000E-03
  1 2 18 3.00000000E-03
  1 2 19 3.00000000E-03
  1 2 20 3.00000000E-03
  1 2 21 3.00000000E-03
  1 2 22 3.00000000E-03
  1 2 23 3.00000000E-03
  1 2 24 3.00000000E-03
  1 2 25 3.00000000E-03
  1 2 26 3.00000000E-03
  1 2 27 3.00000000E-03
  1 2 28 3.00000000E-03
  1 2 29 3.00000000E-03
  1 2 30 3.00000000E-03
  1 3 1 3.00000000E-03
  1 3 2 3.00000000E-03
  1 3 3 3.00000000E-03
  1 3 4 3.00000000E-03
  1 3 5 3.00000000E-03
  1 3 6 3.00000000E-03
  1 3 7 3.00000000E-03
  1 3 8 3.00000000E-03
  1 3 9 3.00000000E-03
  1 3 10 3.00000000E-03
  1 3 11 3.00000000E-03
  1 3 12 3.00000000E-03
  1 3 13 3.00000000E-03
  1 3 14 3.00000000E-03
  1 3 15 3.00000000E-03
  1 3 16 3.00000000E-03
  1 3 17 3.00000000E-03
  1 3 18 3.00000000E-03
  1 3 19 3.00000000E-03
  1 3 20 3.00000000E-03
  1 3 21 3.00000000E-03
  1 3 22 3.00000000E-03
  1 3 23 3.00000000E-03
  1 3 24 3.00000000E-03
  1 3 25 3.00000000E-03
  1 3 26 3.00000000E-03
  1 3 27 3.00000000E-03
  1 3 28 3.00000000E-03
  1 3 29 3.00000000E-03
  1 3 30 3.00000000E-03
  1 4 1 3.00000000E-03
  1 4 2 3.00000000E-03
  1 4 3 3.00000000E-03
  1 4 4 3.00000000E-03
  1 4 5 3.00000000E-03
  1 4 6 3.00000000E-03
  1 4 7 3.00000000E-03
  1 4 8 3.00000000E-03
  1 4 9 3.00000000E-03
  1 4 10 3.00000000E-03
  1 4 11 3.00000000E-03
  1 4 12 3.00000000E-03
  1 4 13 3.00000000E-03
  1 4 14 3.00000000E-03
  1 4 15 3.00000000E-03
  1 4 16 3.00000000E-03
  1 4 17 3.00000000E-03
  1 4 18 3.00000000E-03
  1 4 19 3.00000000E-03
  1 4 20 3.00000000E-03
  1 4 21 3.00000000E-03
  1 4 22 3.00000000E-03
  1 4 23 3.00000000E-03
  1 4 24 3.00000000E-03
  1 4 25 3.00000000E-03
  1 4 26 3.00000000E-03
  1 4 27 3.00000000E-03
  1 4 28 3.00000000E-03
  1 4 29 3.00000000E-03
  1 4 30 3.00000000E-03
  1 5 1 3.00000000E-03
  1 5 2 3.00000000E-03
  1 5 3 3.00000000E-03
  1 5 4 3.00000000E-03
  1 5 5 3.00000000E-03
  1 5 6 3.00000000E-03
  1 5 7 3.00000000E-03
  1 5 8 3.00000000E-03
  1 5 9 3.00000000E-03
  1 5 10 3.00000000E-03
  1 5 11 3.00000000E-03
  1 5 12 3.00000000E-03
  1 5 13 3.00000000E-03
  1 5 14 3.00000000E-03
  1 5 15 3.00000000E-03
  1 5 16 3.00000000E-03
  1 5 17 3.00000000E-03
  1 5 18 3.00000000E-03
  1 5 19 3.00000000E-03
  1 5 20 3.00000000E-03
  1 5 21 3.00000000E-03
  1 5 22 3.00000000E-03
  1 5 23 3.00000000E-03
  1 5 24 3.00000000E-03
  1 5 25 3.00000000E-03
  1 5 26 3.00000000E-03
  1 5 27 3.00000000E-03
  1 5 28 3.00000000E-03
  1 5 29 3.00000000E-03
  1 5 30 3.00000000E-03
  1 6 1 3.00000000E-03
  1 6 2 3.00000000E-03
  1 6 3 3.00000000E-03
  1 6 4 3.00000000E-03
  1 6 5 3.00000000E-03
  1 6 6 3.00000000E-03
  1 6 7 3.00000000E-03
  1 6 8 3.00000000E-03
  1 6 9 3.00000000E-03
  1 6 10 3.00000000E-03
  1 6 11 3.00000000E-03
  1 6 12 3.00000000E-03
  1 6 13 3.00000000E-03
  1 6 14 3.00000000E-03
  1 6 15 3.00000000E-03
  1 6 16 3.00000000E-03
  1 6 17 3.00000000E-03
  1 6 18 3.00000000E-03
  1 6 19 3.00000000E-03
  1 6 20 3.00000000E-03
  1 6 21 3.00000000E-03
  1 6 22 3.00000000E-03
  1 6 23 3.00000000E-03
  1 6 24 3.00000000E-03
  1 6 25 3.00000000E-03
  1 6 26 3.00000000E-03
  1 6 27 3.00000000E-03
  1 6 28 3.00000000E-03
  1 6 29 3.00000000E-03
  1 6 30 3.00000000E-03
  1 7 1 3.00000000E-03
  1 7 2 3.00000000E-03
  1 7 3 3.00000000E-03
  1 7 4 3.00000000E-03
  1 7 5 3.00000000E-03
  1 7 6 3.00000000E-03
  1 7 7 3.00000000E-03
  1 7 8 3.00000000E-03
  1 7 9 3.00000000E-03
  1 7 10 3.00000000E-03
  1 7 11 3.00000000E-03
  1 7 12 3.00000000E-03
  1 7 13 3.00000000E-03
  1 7 14 3.00000000E-03
  1 7 15 3.00000000E-03
  1 7 16 3.00000000E-03
  1 7 17 3.00000000E-03
  1 7 18 3.00000000E-03
  1 7 19 3.00000000E-03
  1 7 20 3.00000000E-03
  1 7 21 3.00000000E-03
  1 7 22 3.00000000E-03
  1 7 23 3.00000000E-03
  1 7 24 3.00000000E-03
  1 7 25 3.00000000E-03
  1 7 26 3.00000000E-03
  1 7 27 3.00000000E-03
  1 7 28 3.00000000E-03
  1 7 29 3.00000000E-03
  1 7 30 3.00000000E-03
  1 8 1 3.00000000E-03
  1 8 2 3.00000000E-03
  1 8 3 3.00000000E-03
  1 8 4 3.00000000E-03
  1 8 5 3.00000000E-03
  1 8 6 3.00000000E-03
  1 8 7 3.00000000E-03
  1 8 8 3.00000000E-03
  1 8 9 3.00000000E-03
  1 8 10 3.00000000E-03
  1 8 11 3.00000000E-03
  1 8 12 3.00000000E-03
  1 8 13 3.00000000E-03
  1 8 14 3.00000000E-03
  1 8 15 3.00000000E-03
  1 8 16 3.00000000E-03
  1 8 17 3.00000000E-03
  1 8 18 3.00000000E-03
  1 8 19 3.00000000E-03
  1 8 20 3.00000000E-03
  1 8 21 3.00000000E-03
  1 8 22 3.00000000E-03
  1 8 23 3.00000000E-03
  1 8 24 3.00000000E-03
  1 8 25 3.00000000E-03
  1 8 26 3.00000000E-03
  1 8 27 3.00000000E-03
  1 8 28 3.00000000E-03
  1 8 29 3.00000000E-03
  1 8 30 3.00000000E-03
  1 9 1 3.00000000E-03
  1 9 2 3.00000000E-03
  1 9 3 3.00000000E-03
  1 9 4 3.00000000E-03
  1 9 5 3.00000000E-03
  1 9 6 3.00000000E-03
  1 9 7 3.00000000E-03
  1 9 8 3.00000000E-03
  1 9 9 3.00000000E-03
  1 9 10 3.00000000E-03
  1 9 11 3.00000000E-03
  1 9 12 3.00000000E-03
  1 9 13 3.00000000E-03
  1 9 14 3.00000000E-03
  1 9 15 3.00000000E-03
  1 9 16 3.00000000E-03
  1 9 17 3.00000000E-03
  1 9 18 3.00000000E-03
  1 9 19 3.00000000E-03
  1 9 20 3.00000000E-03
  1 9 21 3.00000000E-03
  1 9 22 3.00000000E-03
  1 9 23 3.00000000E-03
  1 9 24 3.00000000E-03
  1 9 25 3.00000000E-03
  1 9 26 3.00000000E-03
  1 9 27 3.00000000E-03
  1 9 28 3.00000000E-03
  1 9 29 3.00000000E-03
  1 9 30 3.00000000E-03
  1 10 1 3.00000000E-03
  1 10 2 3.00000000E-03
  1 10 3 3.00000000E-03
  1 10 4 3.00000000E-03
  1 10 5 3.00000000E-03
  1 10 6 3.00000000E-03
  1 10 7 3.00000000E-03
  1 10 8 3.00000000E-03
  1 10 9 3.00000000E-03
  1 10 10 3.00000000E-03
  1 10 11 3.00000000E-03
  1 10 12 3.00000000E-03
  1 10 13 3.00000000E-03
  1 10 14 3.00000000E-03
  1 10 15 3.00000000E-03
  1 10 16 3.00000000E-03
  1 10 17 3.00000000E-03
  1 10 18 3.00000000E-03
  1 10 19 3.00000000E-03
  1 10 20 3.00000000E-03
  1 10 21 3.00000000E-03
  1 10 22 3.00000000E-03
  1 10 23 3.00000000E-03
  1 10 24 3.00000000E-03
  1 10 25 3.00000000E-03
  1 10 26 3.00000000E-03
  1 10 27 3.00000000E-03
  1 10 28 3.00000000E-03
  1 10 29 3.00000000E-03
  1 10 30 3.00000000E-03
  1 11 1 3.00000000E-03
  1 11 2 3.00000000E-03
  1 11 3 3.00000000E-03
  1 11 4 3.00000000E-03
  1 11 5 3.00000000E-03
  1 11 6 3.00000000E-03
  1 11 7 3.00000000E-03
  1 11 8 3.00000000E-03
  1 11 9 3.00000000E-03
  1 11 10 3.00000000E-03
  1 11 11 3.00000000E-03
  1 11 12 3.00000000E-03
  1 11 13 3.00000000E-03
  1 11 14 3.00000000E-03
  1 11 15 3.00000000E-03
  1 11 16 3.00000000E-03
  1 11 17 3.00000000E-03
  1 11 18 3.00000000E-03
  1 11 19 3.00000000E-03
  1 11 20 3.00000000E-03
  1 11 21 3.00000000E-03
  1 11 22 3.00000000E-03
  1 11 23 3.00000000E-03
  1 11 24 3.00000000E-03
  1 11 25 3.00000000E-03
  1 11 26 3.00000000E-03
  1 11 27 3.00000000E-03
  1 11 28 3.00000000E-03
  1 11 29 3.00000000E-03
  1 11 30 3.00000000E-03
  1 12 1 3.00000000E-03
  1 12 2 3.00000000E-03
  1 12 3 3.00000000E-03
  1 12 4 3.00000000E-03
  1 12 5 3.00000000E-03
  1 12 6 3.00000000E-03
  1 12 7 3.00000000E-03
  1 12 8 3.00000000E-03
  1 12 9 3.00000000E-03
  1 12 10 3.00000000E-03
  1 12 11 3.00000000E-03
  1 12 12 3.00000000E-03
  1 12 13 3.00000000E-03
  1 12 14 3.00000000E-03
  1 12 15 3.00000000E-03
  1 12 16 3.00000000E-03
  1 12 17 3.00000000E-03
  1 12 18 3.00000000E-03
  1 12 19 3.00000000E-03
  1 12 20 3.00000000E-03
  1 12 21 3.00000000E-03
  1 12 22 3.00000000E-03
  1 12 23 3.00000000E-03
  1 12 24 3.00000000E-03
  1 12 25 3.00000000E-03
  1 12 26 3.00000000E-03
  1 12 27 3.00000000E-03
  1 12 28 3.00000000E-03
  1 12 29 3.00000000E-03
  1 12 30 3.00000000E-03
  1 13 1 3.00000000E-03
  1 13 2 3.00000000E-03
  1 13 3 3.00000000E-03
  1 13 4 3.00000000E-03
  1 13 5 3.00000000E-03
  1 13 6 3.00000000E-03
  1 13 7 3.00000000E-03
  1 13 8 3.00000000E-03
  1 13 9 3.00000000E-03
  1 13 10 3.00000000E-03
  1 13 11 3.00000000E-03
  1 13 12 3.00000000E-03
  1 13 13 3.00000000E-03
  1 13 14 3.00000000E-03
  1 13 15 3.00000000E-03
  1 13 16 3.00000000E-03
  1 13 17 3.00000000E-03
  1 13 18 3.00000000E-03
  1 13 19 3.00000000E-03
  1 13 20 3.00000000E-03
  1 13 21 3.00000000E-03
  1 13 22 3.00000000E-03
  1 13 23 3.00000000E-03
  1 13 24 3.00000000E-03
  1 13 25 3.00000000E-03
  1 13 26 3.00000000E-03
  1 13 27 3.00000000E-03
  1 13 28 3.00000000E-03
  1 13 29 3.00000000E-03
  1 13 30 3.00000000E-03
  1 14 1 3.00000000E-03
  1 14 2 3.00000000E-03
  1 14 3 3.00000000E-03
  1 14 4 3.00000000E-03
  1 14 5 3.00000000E-03
  1 14 6 3.00000000E-03
  1 14 7 3.00000000E-03
  1 14 8 3.00000000E-03
  1 14 9 3.00000000E-03
  1 14 10 3.00000000E-03
  1 14 11 3.00000000E-03
  1 14 12 3.00000000E-03
  1 14 13 3.00000000E-03
  1 14 14 3.00000000E-03
  1 14 15 3.00000000E-03
  1 14 16 3.00000000E-03
  1 14 17 3.00000000E-03
  1 14 18 3.00000000E-03
  1 14 19 3.00000000E-03
  1 14 20 3.00000000E-03
  1 14 21 3.00000000E-03
  1 14 22 3.00000000E-03
  1 14 23 3.00000000E-03
  1 14 24 3.00000000E-03
  1 14 25 3.00000000E-03
  1 14 26 3.00000000E-03
  1 14 27 3.00000000E-03
  1 14 28 3.00000000E-03
  1 14 29 3.00000000E-03
  1 14 30 3.00000000E-03
  1 15 1 3.00000000E-03
  1 15 2 3.00000000E-03
  1 15 3 3.00000000E-03
  1 15 4 3.00000000E-03
  1 15 5 3.00000000E-03
  1 15 6 3.00000000E-03
  1 15 7 3.00000000E-03
  1 15 8 3.00000000E-03
  1 15 9 3.00000000E-03
  1 15 10 3.00000000E-03
  1 15 11 3.00000000E-03
  1 15 12 3.00000000E-03
  1 15 13 3.00000000E-03
  1 15 14 3.00000000E-03
  1 15 15 3.00000000E-03
  1 15 16 3.00000000E-03
  1 15 17 3.00000000E-03
  1 15 18 3.00000000E-03
  1 15 19 3.00000000E-03
  1 15 20 3.00000000E-03
  1 15 21 3.00000000E-03
  1 15 22 3.00000000E-03
  1 15 23 3.00000000E-03
  1 15 24 3.00000000E-03
  1 15 25 3.00000000E-03
  1 15 26 3.00000000E-03
  1 15 27 3.00000000E-03
  1 15 28 3.00000000E-03
  1 15 29 3.00000000E-03
  1 15 30 3.00000000E-03
  1 16 1 3.00000000E-03
  1 16 2 3.00000000E-03
  1 16 3 3.00000000E-03
  1 16 4 3.00000000E-03
  1 16 5 3.00000000E-03
  1 16 6 3.00000000E-03
  1 16 7 3.00000000E-03
  1 16 8 3.00000000E-03
  1 16 9 3.00000000E-03
  1 16 10 3.00000000E-03
  1 16 11 3.00000000E-03
  1 16 12 3.00000000E-03
  1 16 13 3.00000000E-03
  1 16 14 3.00000000E-03
  1 16 15 3.00000000E-03
  1 16 16 3.00000000E-03
  1 16 17 3.00000000E-03
  1 16 18 3.00000000E-03
  1 16 19 3.00000000E-03
  1 16 20 3.00000000E-03
  1 16 21 3.00000000E-03
  1 16 22 3.00000000E-03
  1 16 23 3.00000000E-03
  1 16 24 3.00000000E-03
  1 16 25 3.00000000E-03
  1 16 26 3.00000000E-03
  1 16 27 3.00000000E-03
  1 16 28 3.00000000E-03
  1 16 29 3.00000000E-03
  1 16 30 3.00000000E-03
  1 17 1 3.00000000E-03
  1 17 2 3.00000000E-03
  1 17 3 3.00000000E-03
  1 17 4 3.00000000E-03
  1 17 5 3.00000000E-03
  1 17 6 3.00000000E-03
  1 17 7 3.00000000E-03
  1 17 8 3.00000000E-03
  1 17 9 3.00000000E-03
  1 17 10 3.00000000E-03
  1 17 11 3.00000000E-03
  1 17 12 3.00000000E-03
  1 17 13 3.00000000E-03
  1 17 14 3.00000000E-03
  1 17 15 3.00000000E-03
  1 17 16 3.00000000E-03
  1 17 17 3.00000000E-03
  1 17 18 3.00000000E-03
  1 17 19 3.00000000E-03
  1 17 20 3.00000000E-03
  1 17 21 3.00000000E-03
  1 17 22 3.00000000E-03
  1 17 23 3.00000000E-03
  1 17 24 3.00000000E-03
  1 17 25 3.00000000E-03
  1 17 26 3.00000000E-03
  1 17 27 3.00000000E-03
  1 17 28 3.00000000E-03
  1 17 29 3.00000000E-03
  1 17 30 3.00000000E-03
  1 18 1 3.00000000E-03
  1 18 2 3.00000000E-03
  1 18 3 3.00000000E-03
  1 18 4 3.00000000E-03
  1 18 5 3.00000000E-03
  1 18 6 3.00000000E-03
  1 18 7 3.00000000E-03
  1 18 8 3.00000000E-03
  1 18 9 3.00000000E-03
  1 18 10 3.00000000E-03
  1 18 11 3.00000000E-03
  1 18 12 3.00000000E-03
  1 18 13 3.00000000E-03
  1 18 14 3.00000000E-03
  1 18 15 3.00000000E-03
  1 18 16 3.00000000E-03
  1 18 17 3.00000000E-03
  1 18 18 3.00000000E-03
  1 18 19 3.00000000E-03
  1 18 20 3.00000000E-03
  1 18 21 3.00000000E-03
  1 18 22 3.00000000E-03
  1 18 23 3.00000000E-03
  1 18 24 3.00000000E-03
  1 18 25 3.00000000E-03
  1 18 26 3.00000000E-03
  1 18 27 3.00000000E-03
  1 18 28 3.00000000E-03
  1 18 29 3.00000000E-03
  1 18 30 3.00000000E-03
  1 19 1 3.00000000E-03
  1 19 2 3.00000000E-03
  1 19 3 3.00000000E-03
  1 19 4 3.00000000E-03
  1 19 5 3.00000000E-03
  1 19 6 3.00000000E-03
  1 19 7 3.00000000E-03
  1 19 8 3.00000000E-03
  1 19 9 3.00000000E-03
  1 19 10 3.00000000E-03
  1 19 11 3.00000000E-03
  1 19 12 3.00000000E-03
  1 19 13 3.00000000E-03
  1 19 14 3.00000000E-03
  1 19 15 3.00000000E-03
  1 19 16 3.00000000E-03
  1 19 17 3.00000000E-03
  1 19 18 3.00000000E-03
  1 19 19 3.00000000E-03
  1 19 20 3.00000000E-03
  1 19 21 3.00000000E-03
  1 19 22 3.00000000E-03
  1 19 23 3.00000000E-03
  1 19 24 3.00000000E-03
  1 19 25 3.00000000E-03
  1 19 26 3.00000000E-03
  1 19 27 3.00000000E-03
  1 19 28 3.00000000E-03
  1 19 29 3.00000000E-03
  1 19 30 3.00000000E-03
  1 20 1 3.00000000E-03
  1 20 2 3.00000000E-03
  1 20 3 3.00000000E-03
  1 20 4 3.00000000E-03
  1 20 5 3.00000000E-03
  1 20 6 3.00000000E-03
  1 20 7 3.00000000E-03
  1 20 8 3.00000000E-03
  1 20 9 3.00000000E-03
  1 20 10 3.00000000E-03
  1 20 11 3.00000000E-03
  1 20 12 3.00000000E-03
  1 20 13 3.00000000E-03
  1 20 14 3.00000000E-03
  1 20 15 3.00000000E-03
  1 20 16 3.00000000E-03
  1 20 17 3.00000000E-03
  1 20 18 3.00000000E-03
  1 20 19 3.00000000E-03
  1 20 20 3.00000000E-03
  1 20 21 3.00000000E-03
  1 20 22 3.00000000E-03
  1 20 23 3.00000000E-03
  1 20 24 3.00000000E-03
  1 20 25 3.00000000E-03
  1 20 26 3.00000000E-03
  1 20 27 3.00000000E-03
  1 20 28 3.00000000E-03
  1 20 29 3.00000000E-03
  1 20 30 3.00000000E-03
END period  2

