# File generated by Flopy version 3.9.3 on 08/07/2025 at 08:31:59.
BEGIN options
  TIME_UNITS  days
END options

BEGIN dimensions
  NPER  2
END dimensions

BEGIN perioddata
       1.00000000  1       1.00000000
      10.00000000  5       1.20000000
END perioddata

