# File generated by Flopy version 3.9.3 on 08/08/2025 at 09:11:25.
BEGIN options
  PRINT_INPUT
  PRINT_FLOWS
END options

BEGIN dimensions
  MAXBOUND  1
END dimensions

BEGIN period  1
  2 11 16 5.00000000E+02
END period  1

BEGIN period  2
  2 11 16 -8.00000000E+02
END period  2

