# File generated by Flopy version 3.9.3 on 08/08/2025 at 18:31:02.
BEGIN options
END options

BEGIN timing
  TDIS6  mf6_demo.tdis
END timing

BEGIN models
  gwf6  mf6_demo.nam  mf6_demo
END models

BEGIN exchanges
END exchanges

BEGIN solutiongroup  1
  ims6  mf6_demo.ims  mf6_demo
END solutiongroup  1

