# WEL package for MODFLOW-2005 generated by Flopy 3.9.3
         6       102  aux well_id  aux efficiency  aux depth_m  aux owner_code 
         5         0 # stress period 1
         1         6         6         -1500.0           101.0            0.85            25.0             1.0
         2         4         4          -800.0           201.0            0.75            35.0             2.0
         2         8         8          -600.0           202.0             0.7            38.0             2.0
         3         5         8         -2000.0           301.0             0.9            55.0             3.0
         2         7         4           500.0           401.0            0.95            30.0             4.0
         6         0 # stress period 2
         1         6         6         -1500.0           101.0            0.85            25.0             1.0
         2         4         4         -1200.0           201.0            0.75            35.0             2.0
         2         8         8          -900.0           202.0             0.7            38.0             2.0
         3         5         8         -2000.0           301.0             0.9            55.0             3.0
         2         7         4           500.0           401.0            0.95            30.0             4.0
         1         9         5          -400.0           501.0             0.6            20.0             5.0
         4         0 # stress period 3
         1         6         6         -1500.0           101.0            0.85            25.0             1.0
         2         4         4          -400.0           201.0            0.75            35.0             2.0
         3         5         8         -2000.0           301.0             0.9            55.0             3.0
         2         7         4           500.0           401.0            0.95            30.0             4.0
