# File generated by Flopy version 3.9.3 on 08/07/2025 at 00:19:26.
BEGIN options
END options

BEGIN dimensions
  MAXBOUND  1
END dimensions

BEGIN period  1
  1 1 1 4.50000000E+00
END period  1

