# File generated by Flopy version 3.9.3 on 08/07/2025 at 00:19:26.
BEGIN options
  HEAD  FILEOUT  geospatial_demo.hds
END options

BEGIN period  1
  SAVE  HEAD  ALL
END period  1

