# File generated by Flopy version 3.9.3 on 08/07/2025 at 00:19:26.
BEGIN options
  XORIGIN    -121.40000000
  YORIGIN      38.54000000
END options

BEGIN dimensions
  NLAY  1
  NROW  10
  NCOL  10
END dimensions

BEGIN griddata
  delr
    CONSTANT     100.00000000
  delc
    CONSTANT     100.00000000
  top
    CONSTANT      10.00000000
  botm
    CONSTANT       0.00000000
END griddata

