# File generated by Flopy version 3.9.3 on 08/07/2025 at 00:19:26.
BEGIN options
END options

