# File generated by Flopy version 3.9.3 on 08/07/2025 at 01:13:08.
BEGIN options
END options

BEGIN dimensions
  MAXBOUND  1
END dimensions

BEGIN period  1
  1 11 6 -1.00000000E+01
END period  1

