# File generated by Flopy version 3.9.3 on 08/07/2025 at 01:13:08.
BEGIN options
  SAVE_FLOWS
END options

BEGIN packages
  DIS6  model.dis  dis
  NPF6  model.npf  npf
  IC6  model.ic  ic
  CHD6  model.chd  chd_0
  WEL6  model.wel  wel_0
  OC6  model.oc  oc
END packages

