# File generated by Flopy version 3.9.3 on 08/07/2025 at 01:13:08.
BEGIN options
  HEAD  FILEOUT  model.hds
END options

BEGIN period  1
  SAVE  HEAD  ALL
END period  1

