# File generated by Flopy version 3.9.3 on 08/07/2025 at 01:13:08.
BEGIN options
END options

BEGIN griddata
  icelltype
    CONSTANT  0
  k
    CONSTANT      10.00000000
END griddata

