# BAS6 package for MODFLOW-2005 generated by Flopy 3.9.3
FREE
INTERNAL               1    (20I10) -1 #ibound layer 1                
        -1        -1        -1        -1        -1        -1        -1        -1        -1        -1        -1        -1        -1        -1        -1        -1        -1        -1        -1        -1
        -1         1         1         1         1         1         1         1         1         1         1         1         1         1         1         1         1         1         1        -1
        -1         1         1         1         1         1         1         1         1         1         1         1         1         1         1         1         1         1         1        -1
        -1         1         1         1         1         1         1         1         1         1         1         1         1         1         1         1         1         1         1        -1
        -1         1         1         1         1         1         1         1         1         1         1         1         1         1         1         1         1         1         1        -1
        -1         1         1         1         1         1         1         1         1         1         1         1         1         1         1         1         1         1         1        -1
        -1         1         1         1         1         1         1         1         1         1         1         1         1         1         1         1         1         1         1        -1
        -1         1         1         1         1        -1         1         1         1         1        -1         1         1         1         1        -1         1         1         1        -1
        -1         1         1         1         1         1         1         1         1         1         1         1         1         1         1         1         1         1         1        -1
        -1         1         1         1         1         1         1         1         1         1         1         1         1         1         1         1         1         1         1        -1
        -1         1         1         1         1         1         1         1         1         1         1         1         1         1         1         1         1         1         1        -1
        -1         1         1         1         1         1         1         1         1         1         1         1         1         1         1         1         1         1         1        -1
        -1         1         1         1         1         1         1         1         1         1         1         1         1         1         1         1         1         1         1        -1
        -1         1         1         1         1         1         1         1         1         1         1         1         1         1         1         1         1         1         1        -1
        -1        -1        -1        -1        -1        -1        -1        -1        -1        -1        -1        -1        -1        -1        -1        -1        -1        -1        -1        -1
   -999.99
INTERNAL               1  (20E15.6) -1 #strt layer 1                  
   9.500000E+01   8.800000E+01   8.800000E+01   8.800000E+01   8.800000E+01   8.800000E+01   8.800000E+01   8.800000E+01   8.800000E+01   8.800000E+01   8.800000E+01   8.800000E+01   8.800000E+01   8.800000E+01   8.800000E+01   8.800000E+01   8.800000E+01   8.800000E+01   8.800000E+01   7.500000E+01
   9.500000E+01   9.394736E+01   9.289474E+01   9.184210E+01   9.078947E+01   8.973684E+01   8.868421E+01   8.763158E+01   8.657895E+01   8.552631E+01   8.447369E+01   8.342105E+01   8.236842E+01   8.131579E+01   8.026316E+01   7.921053E+01   7.815790E+01   7.710526E+01   7.605264E+01   7.500000E+01
   9.500000E+01   9.394736E+01   9.289474E+01   9.184210E+01   9.078947E+01   8.973684E+01   8.868421E+01   8.763158E+01   8.657895E+01   8.552631E+01   8.447369E+01   8.342105E+01   8.236842E+01   8.131579E+01   8.026316E+01   7.921053E+01   7.815790E+01   7.710526E+01   7.605264E+01   7.500000E+01
   9.500000E+01   9.394736E+01   9.289474E+01   9.184210E+01   9.078947E+01   8.973684E+01   8.868421E+01   8.763158E+01   8.657895E+01   8.552631E+01   8.447369E+01   8.342105E+01   8.236842E+01   8.131579E+01   8.026316E+01   7.921053E+01   7.815790E+01   7.710526E+01   7.605264E+01   7.500000E+01
   9.500000E+01   9.394736E+01   9.289474E+01   9.184210E+01   9.078947E+01   8.973684E+01   8.868421E+01   8.763158E+01   8.657895E+01   8.552631E+01   8.447369E+01   8.342105E+01   8.236842E+01   8.131579E+01   8.026316E+01   7.921053E+01   7.815790E+01   7.710526E+01   7.605264E+01   7.500000E+01
   9.500000E+01   9.394736E+01   9.289474E+01   9.184210E+01   9.078947E+01   8.973684E+01   8.868421E+01   8.763158E+01   8.657895E+01   8.552631E+01   8.447369E+01   8.342105E+01   8.236842E+01   8.131579E+01   8.026316E+01   7.921053E+01   7.815790E+01   7.710526E+01   7.605264E+01   7.500000E+01
   9.500000E+01   9.394736E+01   9.289474E+01   9.184210E+01   9.078947E+01   8.973684E+01   8.868421E+01   8.763158E+01   8.657895E+01   8.552631E+01   8.447369E+01   8.342105E+01   8.236842E+01   8.131579E+01   8.026316E+01   7.921053E+01   7.815790E+01   7.710526E+01   7.605264E+01   7.500000E+01
   9.500000E+01   9.394736E+01   9.289474E+01   9.184210E+01   9.078947E+01   9.000000E+01   8.868421E+01   8.763158E+01   8.657895E+01   8.552631E+01   8.500000E+01   8.342105E+01   8.236842E+01   8.131579E+01   8.026316E+01   8.000000E+01   7.815790E+01   7.710526E+01   7.605264E+01   7.500000E+01
   9.500000E+01   9.394736E+01   9.289474E+01   9.184210E+01   9.078947E+01   8.973684E+01   8.868421E+01   8.763158E+01   8.657895E+01   8.552631E+01   8.447369E+01   8.342105E+01   8.236842E+01   8.131579E+01   8.026316E+01   7.921053E+01   7.815790E+01   7.710526E+01   7.605264E+01   7.500000E+01
   9.500000E+01   9.394736E+01   9.289474E+01   9.184210E+01   9.078947E+01   8.973684E+01   8.868421E+01   8.763158E+01   8.657895E+01   8.552631E+01   8.447369E+01   8.342105E+01   8.236842E+01   8.131579E+01   8.026316E+01   7.921053E+01   7.815790E+01   7.710526E+01   7.605264E+01   7.500000E+01
   9.500000E+01   9.394736E+01   9.289474E+01   9.184210E+01   9.078947E+01   8.973684E+01   8.868421E+01   8.763158E+01   8.657895E+01   8.552631E+01   8.447369E+01   8.342105E+01   8.236842E+01   8.131579E+01   8.026316E+01   7.921053E+01   7.815790E+01   7.710526E+01   7.605264E+01   7.500000E+01
   9.500000E+01   9.394736E+01   9.289474E+01   9.184210E+01   9.078947E+01   8.973684E+01   8.868421E+01   8.763158E+01   8.657895E+01   8.552631E+01   8.447369E+01   8.342105E+01   8.236842E+01   8.131579E+01   8.026316E+01   7.921053E+01   7.815790E+01   7.710526E+01   7.605264E+01   7.500000E+01
   9.500000E+01   9.394736E+01   9.289474E+01   9.184210E+01   9.078947E+01   8.973684E+01   8.868421E+01   8.763158E+01   8.657895E+01   8.552631E+01   8.447369E+01   8.342105E+01   8.236842E+01   8.131579E+01   8.026316E+01   7.921053E+01   7.815790E+01   7.710526E+01   7.605264E+01   7.500000E+01
   9.500000E+01   9.394736E+01   9.289474E+01   9.184210E+01   9.078947E+01   8.973684E+01   8.868421E+01   8.763158E+01   8.657895E+01   8.552631E+01   8.447369E+01   8.342105E+01   8.236842E+01   8.131579E+01   8.026316E+01   7.921053E+01   7.815790E+01   7.710526E+01   7.605264E+01   7.500000E+01
   9.500000E+01   8.200000E+01   8.200000E+01   8.200000E+01   8.200000E+01   8.200000E+01   8.200000E+01   8.200000E+01   8.200000E+01   8.200000E+01   8.200000E+01   8.200000E+01   8.200000E+01   8.200000E+01   8.200000E+01   8.200000E+01   8.200000E+01   8.200000E+01   8.200000E+01   7.500000E+01
