# DIS package for MODFLOW-2005 generated by Flopy 3.9.3
         1        15        20         1         4         2
  0
CONSTANT    2.500000E+02                           #delr                          
CONSTANT    2.500000E+02                           #delc                          
CONSTANT    1.000000E+02                           #model_top                     
CONSTANT    0.000000E+00                           #botm layer 1                  
      1.000000             1  1.000000  SS
