# CHD package for MODFLOW-2005 generated by Flopy 3.9.3
        69
        69         0 # stress period 1
         1         1         1            95.0            95.0
         1         2         1            95.0            95.0
         1         3         1            95.0            95.0
         1         4         1            95.0            95.0
         1         5         1            95.0            95.0
         1         6         1            95.0            95.0
         1         7         1            95.0            95.0
         1         8         1            95.0            95.0
         1         9         1            95.0            95.0
         1        10         1            95.0            95.0
         1        11         1            95.0            95.0
         1        12         1            95.0            95.0
         1        13         1            95.0            95.0
         1        14         1            95.0            95.0
         1        15         1            95.0            95.0
         1         1        20            75.0            75.0
         1         2        20            75.0            75.0
         1         3        20            75.0            75.0
         1         4        20            75.0            75.0
         1         5        20            75.0            75.0
         1         6        20            75.0            75.0
         1         7        20            75.0            75.0
         1         8        20            75.0            75.0
         1         9        20            75.0            75.0
         1        10        20            75.0            75.0
         1        11        20            75.0            75.0
         1        12        20            75.0            75.0
         1        13        20            75.0            75.0
         1        14        20            75.0            75.0
         1        15        20            75.0            75.0
         1         1         2            88.0            88.0
         1         1         3            88.0            88.0
         1         1         4            88.0            88.0
         1         1         5            88.0            88.0
         1         1         6            88.0            88.0
         1         1         7            88.0            88.0
         1         1         8            88.0            88.0
         1         1         9            88.0            88.0
         1         1        10            88.0            88.0
         1         1        11            88.0            88.0
         1         1        12            88.0            88.0
         1         1        13            88.0            88.0
         1         1        14            88.0            88.0
         1         1        15            88.0            88.0
         1         1        16            88.0            88.0
         1         1        17            88.0            88.0
         1         1        18            88.0            88.0
         1         1        19            88.0            88.0
         1        15         2            82.0            82.0
         1        15         3            82.0            82.0
         1        15         4            82.0            82.0
         1        15         5            82.0            82.0
         1        15         6            82.0            82.0
         1        15         7            82.0            82.0
         1        15         8            82.0            82.0
         1        15         9            82.0            82.0
         1        15        10            82.0            82.0
         1        15        11            82.0            82.0
         1        15        12            82.0            82.0
         1        15        13            82.0            82.0
         1        15        14            82.0            82.0
         1        15        15            82.0            82.0
         1        15        16            82.0            82.0
         1        15        17            82.0            82.0
         1        15        18            82.0            82.0
         1        15        19            82.0            82.0
         1         8         6            90.0            90.0
         1         8        11            85.0            85.0
         1         8        16            80.0            80.0
