# Name file for MODFLOW-2005, generated by Flopy version 3.9.3.
#xll:0.0; yll:0.0; rotation:0.0; units:meters; lenuni:2; start_datetime:1-1-1970
LIST               2  chd_demo.list
DIS               11  chd_demo.dis
BAS6              13  chd_demo.bas
LPF               15  chd_demo.lpf
CHD               24  chd_demo.chd
OC                14  chd_demo.oc
PCG               27  chd_demo.pcg
DATA(BINARY)      53  chd_demo.cbc REPLACE
DATA(BINARY)      51  chd_demo.hds REPLACE
