# BAS6 package for MODFLOW-2005 generated by Flopy 3.9.3
FREE
INTERNAL               1    (18I10) -1 #ibound layer 1                
        -1         1         1         1         1         1         1         1         1         1         1         1         1         1         1         1         1        -1
        -1         1         1         1         1         1         1         1         1         1         1         1         1         1         1         1         1        -1
        -1         1         1         1         1         1         1         1         1         1         1         1         1         1         1         1         1        -1
        -1         1         1         1         1         1         1         1         1         1         1         1         1         1         1         1         1        -1
        -1         1         1         1         1         1         1         1         1         1         1         1         1         1         1         1         1        -1
        -1         1         1         1         1         1         1         1         1         1         1         1         1         1         1         1         1        -1
        -1         1         1         1         1         1         1         1         1         1         1         1         1         1         1         1         1        -1
        -1         1         1         1         1         1         1         1         1         1         1         1         1         1         1         1         1        -1
        -1         1         1         1         1         1         1         1         1         1         1         1         1         1         1         1         1        -1
        -1         1         1         1         1         1         1         1         1         1         1         1         1         1         1         1         1        -1
        -1         1         1         1         1         1         1         1         1         1         1         1         1         1         1         1         1        -1
        -1         1         1         1         1         1         1         1         1         1         1         1         1         1         1         1         1        -1
        -1         1         1         1         1         1         1         1         1         1         1         1         1         1         1         1         1        -1
        -1         1         1         1         1         1         1         1         1         1         1         1         1         1         1         1         1        -1
   -999.99
INTERNAL               1  (18E15.6) -1 #strt layer 1                  
   5.800000E+01   5.780000E+01   5.760000E+01   5.740000E+01   5.720000E+01   5.700000E+01   5.680000E+01   5.660000E+01   5.640000E+01   5.620000E+01   5.600000E+01   5.580000E+01   5.560000E+01   5.540000E+01   5.520000E+01   5.500000E+01   5.480000E+01   5.460000E+01
   5.800000E+01   5.780000E+01   5.760000E+01   5.740000E+01   5.720000E+01   5.700000E+01   5.680000E+01   5.660000E+01   5.640000E+01   5.620000E+01   5.600000E+01   5.580000E+01   5.560000E+01   5.540000E+01   5.520000E+01   5.500000E+01   5.480000E+01   5.460000E+01
   5.800000E+01   5.780000E+01   5.760000E+01   5.740000E+01   5.720000E+01   5.700000E+01   5.680000E+01   5.660000E+01   5.640000E+01   5.620000E+01   5.600000E+01   5.580000E+01   5.560000E+01   5.540000E+01   5.520000E+01   5.500000E+01   5.480000E+01   5.460000E+01
   5.800000E+01   5.780000E+01   5.760000E+01   5.740000E+01   5.720000E+01   5.700000E+01   5.680000E+01   5.660000E+01   5.640000E+01   5.620000E+01   5.600000E+01   5.580000E+01   5.560000E+01   5.540000E+01   5.520000E+01   5.500000E+01   5.480000E+01   5.460000E+01
   5.800000E+01   5.780000E+01   5.760000E+01   5.740000E+01   5.720000E+01   5.700000E+01   5.680000E+01   5.660000E+01   5.640000E+01   5.620000E+01   5.600000E+01   5.580000E+01   5.560000E+01   5.540000E+01   5.520000E+01   5.500000E+01   5.480000E+01   5.460000E+01
   5.800000E+01   5.780000E+01   5.760000E+01   5.740000E+01   5.720000E+01   5.700000E+01   5.680000E+01   5.660000E+01   5.640000E+01   5.620000E+01   5.600000E+01   5.580000E+01   5.560000E+01   5.540000E+01   5.520000E+01   5.500000E+01   5.480000E+01   5.460000E+01
   5.800000E+01   5.780000E+01   5.760000E+01   5.740000E+01   5.720000E+01   5.700000E+01   5.680000E+01   5.660000E+01   5.640000E+01   5.620000E+01   5.600000E+01   5.580000E+01   5.560000E+01   5.540000E+01   5.520000E+01   5.500000E+01   5.480000E+01   5.460000E+01
   5.800000E+01   5.780000E+01   5.760000E+01   5.740000E+01   5.720000E+01   5.700000E+01   5.680000E+01   5.660000E+01   5.640000E+01   5.620000E+01   5.600000E+01   5.580000E+01   5.560000E+01   5.540000E+01   5.520000E+01   5.500000E+01   5.480000E+01   5.460000E+01
   5.800000E+01   5.780000E+01   5.760000E+01   5.740000E+01   5.720000E+01   5.700000E+01   5.680000E+01   5.660000E+01   5.640000E+01   5.620000E+01   5.600000E+01   5.580000E+01   5.560000E+01   5.540000E+01   5.520000E+01   5.500000E+01   5.480000E+01   5.460000E+01
   5.800000E+01   5.780000E+01   5.760000E+01   5.740000E+01   5.720000E+01   5.700000E+01   5.680000E+01   5.660000E+01   5.640000E+01   5.620000E+01   5.600000E+01   5.580000E+01   5.560000E+01   5.540000E+01   5.520000E+01   5.500000E+01   5.480000E+01   5.460000E+01
   5.800000E+01   5.780000E+01   5.760000E+01   5.740000E+01   5.720000E+01   5.700000E+01   5.680000E+01   5.660000E+01   5.640000E+01   5.620000E+01   5.600000E+01   5.580000E+01   5.560000E+01   5.540000E+01   5.520000E+01   5.500000E+01   5.480000E+01   5.460000E+01
   5.800000E+01   5.780000E+01   5.760000E+01   5.740000E+01   5.720000E+01   5.700000E+01   5.680000E+01   5.660000E+01   5.640000E+01   5.620000E+01   5.600000E+01   5.580000E+01   5.560000E+01   5.540000E+01   5.520000E+01   5.500000E+01   5.480000E+01   5.460000E+01
   5.800000E+01   5.780000E+01   5.760000E+01   5.740000E+01   5.720000E+01   5.700000E+01   5.680000E+01   5.660000E+01   5.640000E+01   5.620000E+01   5.600000E+01   5.580000E+01   5.560000E+01   5.540000E+01   5.520000E+01   5.500000E+01   5.480000E+01   5.460000E+01
   5.800000E+01   5.780000E+01   5.760000E+01   5.740000E+01   5.720000E+01   5.700000E+01   5.680000E+01   5.660000E+01   5.640000E+01   5.620000E+01   5.600000E+01   5.580000E+01   5.560000E+01   5.540000E+01   5.520000E+01   5.500000E+01   5.480000E+01   5.460000E+01
