# EVT package for MODFLOW-2005 generated by Flopy 3.9.3
         3        53
         1         1         1         0 # Evapotranspiration dataset 5 for stress period 1
CONSTANT    0.000000E+00                           #surf1                         
INTERNAL               1  (18E15.6) -1 #evtr1                         
   2.000000E-03   2.000000E-03   2.000000E-03   2.000000E-03   2.000000E-03   2.000000E-03   2.000000E-03   2.000000E-03   2.000000E-03   2.000000E-03   2.000000E-03   2.000000E-03   2.000000E-03   2.000000E-03   2.000000E-03   2.000000E-03   2.000000E-03   2.000000E-03
   2.000000E-03   1.200000E-02   1.200000E-02   1.200000E-02   1.200000E-02   1.200000E-02   1.200000E-02   1.200000E-02   1.200000E-02   1.200000E-02   1.200000E-02   1.200000E-02   1.200000E-02   1.200000E-02   1.200000E-02   1.200000E-02   1.200000E-02   2.000000E-03
   2.000000E-03   1.200000E-02   1.200000E-02   1.200000E-02   1.200000E-02   1.200000E-02   1.200000E-02   1.200000E-02   1.200000E-02   1.200000E-02   1.200000E-02   1.200000E-02   1.200000E-02   1.200000E-02   1.200000E-02   1.200000E-02   1.200000E-02   2.000000E-03
   2.000000E-03   1.200000E-02   1.200000E-02   1.200000E-02   1.200000E-02   1.200000E-02   1.200000E-02   1.200000E-02   1.200000E-02   1.200000E-02   1.200000E-02   1.200000E-02   1.200000E-02   1.200000E-02   1.200000E-02   1.200000E-02   1.200000E-02   2.000000E-03
   2.000000E-03   2.000000E-03   2.000000E-03   2.000000E-03   8.000000E-03   8.000000E-03   8.000000E-03   8.000000E-03   8.000000E-03   8.000000E-03   8.000000E-03   8.000000E-03   2.000000E-03   2.000000E-03   2.000000E-03   6.000000E-03   6.000000E-03   2.000000E-03
   2.000000E-03   2.000000E-03   6.000000E-03   6.000000E-03   8.000000E-03   8.000000E-03   8.000000E-03   8.000000E-03   8.000000E-03   8.000000E-03   8.000000E-03   8.000000E-03   2.000000E-03   2.000000E-03   2.000000E-03   6.000000E-03   6.000000E-03   2.000000E-03
   2.000000E-03   2.000000E-03   6.000000E-03   6.000000E-03   8.000000E-03   8.000000E-03   8.000000E-03   8.000000E-03   8.000000E-03   8.000000E-03   8.000000E-03   8.000000E-03   2.000000E-03   2.000000E-03   2.000000E-03   2.000000E-03   2.000000E-03   2.000000E-03
   2.000000E-03   2.000000E-03   2.000000E-03   2.000000E-03   8.000000E-03   8.000000E-03   8.000000E-03   8.000000E-03   8.000000E-03   8.000000E-03   8.000000E-03   8.000000E-03   2.000000E-03   2.000000E-03   2.000000E-03   2.000000E-03   2.000000E-03   2.000000E-03
   2.000000E-03   2.000000E-03   5.000000E-03   5.000000E-03   5.000000E-03   5.000000E-03   5.000000E-03   5.000000E-03   5.000000E-03   5.000000E-03   5.000000E-03   5.000000E-03   5.000000E-03   5.000000E-03   2.000000E-03   2.000000E-03   2.000000E-03   2.000000E-03
   2.000000E-03   2.000000E-03   5.000000E-03   5.000000E-03   5.000000E-03   5.000000E-03   5.000000E-03   5.000000E-03   6.000000E-03   6.000000E-03   5.000000E-03   5.000000E-03   5.000000E-03   5.000000E-03   2.000000E-03   2.000000E-03   2.000000E-03   2.000000E-03
   2.000000E-03   2.000000E-03   5.000000E-03   5.000000E-03   5.000000E-03   5.000000E-03   5.000000E-03   5.000000E-03   6.000000E-03   6.000000E-03   5.000000E-03   5.000000E-03   5.000000E-03   5.000000E-03   2.000000E-03   2.000000E-03   2.000000E-03   2.000000E-03
   2.000000E-03   2.000000E-03   5.000000E-03   5.000000E-03   5.000000E-03   5.000000E-03   5.000000E-03   5.000000E-03   5.000000E-03   5.000000E-03   5.000000E-03   5.000000E-03   5.000000E-03   5.000000E-03   2.000000E-03   2.000000E-03   2.000000E-03   2.000000E-03
   2.000000E-03   2.000000E-03   2.000000E-03   2.000000E-03   2.000000E-03   2.000000E-03   2.000000E-03   2.000000E-03   2.000000E-03   2.000000E-03   2.000000E-03   2.000000E-03   2.000000E-03   2.000000E-03   2.000000E-03   2.000000E-03   2.000000E-03   2.000000E-03
   2.000000E-03   2.000000E-03   2.000000E-03   2.000000E-03   2.000000E-03   2.000000E-03   2.000000E-03   2.000000E-03   2.000000E-03   2.000000E-03   2.000000E-03   2.000000E-03   2.000000E-03   2.000000E-03   2.000000E-03   2.000000E-03   2.000000E-03   2.000000E-03
INTERNAL               1  (18E15.6) -1 #exdp1                         
   4.000000E+00   4.000000E+00   4.000000E+00   4.000000E+00   4.000000E+00   4.000000E+00   4.000000E+00   4.000000E+00   4.000000E+00   4.000000E+00   4.000000E+00   4.000000E+00   4.000000E+00   4.000000E+00   4.000000E+00   4.000000E+00   4.000000E+00   4.000000E+00
   4.000000E+00   5.000000E+00   5.000000E+00   5.000000E+00   5.000000E+00   5.000000E+00   5.000000E+00   5.000000E+00   5.000000E+00   5.000000E+00   5.000000E+00   5.000000E+00   5.000000E+00   5.000000E+00   5.000000E+00   5.000000E+00   5.000000E+00   4.000000E+00
   4.000000E+00   5.000000E+00   5.000000E+00   5.000000E+00   5.000000E+00   5.000000E+00   5.000000E+00   5.000000E+00   5.000000E+00   5.000000E+00   5.000000E+00   5.000000E+00   5.000000E+00   5.000000E+00   5.000000E+00   5.000000E+00   5.000000E+00   4.000000E+00
   4.000000E+00   5.000000E+00   5.000000E+00   5.000000E+00   5.000000E+00   5.000000E+00   5.000000E+00   5.000000E+00   5.000000E+00   5.000000E+00   5.000000E+00   5.000000E+00   5.000000E+00   5.000000E+00   5.000000E+00   5.000000E+00   5.000000E+00   4.000000E+00
   4.000000E+00   4.000000E+00   4.000000E+00   4.000000E+00   3.000000E+00   3.000000E+00   3.000000E+00   3.000000E+00   3.000000E+00   3.000000E+00   3.000000E+00   3.000000E+00   4.000000E+00   4.000000E+00   4.000000E+00   1.500000E+00   1.500000E+00   4.000000E+00
   4.000000E+00   4.000000E+00   1.500000E+00   1.500000E+00   3.000000E+00   3.000000E+00   3.000000E+00   3.000000E+00   3.000000E+00   3.000000E+00   3.000000E+00   3.000000E+00   4.000000E+00   4.000000E+00   4.000000E+00   1.500000E+00   1.500000E+00   4.000000E+00
   4.000000E+00   4.000000E+00   1.500000E+00   1.500000E+00   3.000000E+00   3.000000E+00   3.000000E+00   3.000000E+00   3.000000E+00   3.000000E+00   3.000000E+00   3.000000E+00   4.000000E+00   4.000000E+00   4.000000E+00   4.000000E+00   4.000000E+00   4.000000E+00
   4.000000E+00   4.000000E+00   4.000000E+00   4.000000E+00   3.000000E+00   3.000000E+00   3.000000E+00   3.000000E+00   3.000000E+00   3.000000E+00   3.000000E+00   3.000000E+00   4.000000E+00   4.000000E+00   4.000000E+00   4.000000E+00   4.000000E+00   4.000000E+00
   4.000000E+00   4.000000E+00   2.000000E+00   2.000000E+00   2.000000E+00   2.000000E+00   2.000000E+00   2.000000E+00   2.000000E+00   2.000000E+00   2.000000E+00   2.000000E+00   2.000000E+00   2.000000E+00   4.000000E+00   4.000000E+00   4.000000E+00   4.000000E+00
   4.000000E+00   4.000000E+00   2.000000E+00   2.000000E+00   2.000000E+00   2.000000E+00   2.000000E+00   2.000000E+00   1.500000E+00   1.500000E+00   2.000000E+00   2.000000E+00   2.000000E+00   2.000000E+00   4.000000E+00   4.000000E+00   4.000000E+00   4.000000E+00
   4.000000E+00   4.000000E+00   2.000000E+00   2.000000E+00   2.000000E+00   2.000000E+00   2.000000E+00   2.000000E+00   1.500000E+00   1.500000E+00   2.000000E+00   2.000000E+00   2.000000E+00   2.000000E+00   4.000000E+00   4.000000E+00   4.000000E+00   4.000000E+00
   4.000000E+00   4.000000E+00   2.000000E+00   2.000000E+00   2.000000E+00   2.000000E+00   2.000000E+00   2.000000E+00   2.000000E+00   2.000000E+00   2.000000E+00   2.000000E+00   2.000000E+00   2.000000E+00   4.000000E+00   4.000000E+00   4.000000E+00   4.000000E+00
   4.000000E+00   4.000000E+00   4.000000E+00   4.000000E+00   4.000000E+00   4.000000E+00   4.000000E+00   4.000000E+00   4.000000E+00   4.000000E+00   4.000000E+00   4.000000E+00   4.000000E+00   4.000000E+00   4.000000E+00   4.000000E+00   4.000000E+00   4.000000E+00
   4.000000E+00   4.000000E+00   4.000000E+00   4.000000E+00   4.000000E+00   4.000000E+00   4.000000E+00   4.000000E+00   4.000000E+00   4.000000E+00   4.000000E+00   4.000000E+00   4.000000E+00   4.000000E+00   4.000000E+00   4.000000E+00   4.000000E+00   4.000000E+00
