# Name file for MODFLOW-2005, generated by Flopy version 3.9.3.
#xll:0.0; yll:0.0; rotation:0.0; units:meters; lenuni:2; start_datetime:1-1-1970
LIST               2  evt_demo.list
DIS               11  evt_demo.dis
BAS6              13  evt_demo.bas
LPF               15  evt_demo.lpf
EVT               22  evt_demo.evt
RCH               19  evt_demo.rch
OC                14  evt_demo.oc
PCG               27  evt_demo.pcg
DATA(BINARY)      53  evt_demo.cbc REPLACE
DATA(BINARY)      51  evt_demo.hds REPLACE
