# BAS6 package for MODFLOW-2005 generated by Flopy 3.9.3
FREE
INTERNAL               1    (15I10) -1 #ibound layer 1                
        -1        -1        -1        -1        -1        -1        -1        -1        -1        -1        -1        -1        -1        -1        -1
         1         1         1         1         1         1         1         1         1         1         1         1         1         1         1
         1         1         1         1         1         1         1         1         1         1         1         1         1         1         1
         1         1         1         1         1         1         1         1         1         1         1         1         1         1         1
         1         1         1         1         1         1         1         1         1         1         1         1         1         1         1
         1         1         1         1         1         1         1         1         1         1         1         1         1         1         1
         1         1         1         1         1         1         1         1         1         1         1         1         1         1         1
         1         1         1         1         1         1         1         1         1         1         1         1         1         1         1
         1         1         1         1         1         1         1         1         1         1         1         1         1         1         1
         1         1         1         1         1         1         1         1         1         1         1         1         1         1         1
         1         1         1         1         1         1         1         1         1         1         1         1         1         1         1
         1         1         1         1         1         1         1         1         1         1         1         1         1         1         1
         1         1         1         1         1         1         1         1         1         1         1         1         1         1         1
         1         1         1         1         1         1         1         1         1         1         1         1         1         1         1
        -1        -1        -1        -1        -1        -1        -1        -1        -1        -1        -1        -1        -1        -1        -1
INTERNAL               1    (15I10) -1 #ibound layer 2                
        -1        -1        -1        -1        -1        -1        -1        -1        -1        -1        -1        -1        -1        -1        -1
         1         1         1         1         1         1         1         1         1         1         1         1         1         1         1
         1         1         1         1         1         1         1         1         1         1         1         1         1         1         1
         1         1         1         1         1         1         1         1         1         1         1         1         1         1         1
         1         1         1         1         1         1         1         1         1         1         1         1         1         1         1
         1         1         1         1         1         1         1         1         1         1         1         1         1         1         1
         1         1         1         1         1         1         1         1         1         1         1         1         1         1         1
         1         1         1         1         1         1         1         1         1         1         1         1         1         1         1
         1         1         1         1         1         1         1         1         1         1         1         1         1         1         1
         1         1         1         1         1         1         1         1         1         1         1         1         1         1         1
         1         1         1         1         1         1         1         1         1         1         1         1         1         1         1
         1         1         1         1         1         1         1         1         1         1         1         1         1         1         1
         1         1         1         1         1         1         1         1         1         1         1         1         1         1         1
         1         1         1         1         1         1         1         1         1         1         1         1         1         1         1
        -1        -1        -1        -1        -1        -1        -1        -1        -1        -1        -1        -1        -1        -1        -1
   -999.99
CONSTANT    4.500000E+01                           #strt layer 1                  
CONSTANT    4.500000E+01                           #strt layer 2                  
