# RIV package for MODFLOW-2005 generated by Flopy 3.9.3
        15         0
        15         0 # stress period 1
         1         1        15            42.0           100.0            40.0
         1         2        15            42.0           100.0            40.0
         1         3        15            42.0           100.0            40.0
         1         4        15            42.0           100.0            40.0
         1         5        15            42.0           100.0            40.0
         1         6        15            42.0           100.0            40.0
         1         7        15            42.0           100.0            40.0
         1         8        15            42.0           100.0            40.0
         1         9        15            42.0           100.0            40.0
         1        10        15            42.0           100.0            40.0
         1        11        15            42.0           100.0            40.0
         1        12        15            42.0           100.0            40.0
         1        13        15            42.0           100.0            40.0
         1        14        15            42.0           100.0            40.0
         1        15        15            42.0           100.0            40.0
        -1         0 # stress period 2
        -1         0 # stress period 3
