# TOB for MT3DMS, generated by Flopy.
         0         0         0
tob_output         0        88        89
         0  1.000000         0
