# Name file for MT3DMS, generated by Flopy version 3.9.3.
LIST              16  mt3d_demo_mt.list
FTL               10  mt3d_link.ftl 
BTN               31  mt3d_demo_mt.btn
ADV               32  mt3d_demo_mt.adv
DSP               33  mt3d_demo_mt.dsp
SSM               34  mt3d_demo_mt.ssm
RCT               36  mt3d_demo_mt.rct
GCG               35  mt3d_demo_mt.gcg
TOB               37  mt3d_demo_mt.tob
