# Name file for MODFLOW-2005, generated by Flopy version 3.9.3.
#xll:0.0; yll:0.0; rotation:0.0; units:meters; lenuni:2; start_datetime:1-1-1970
LIST               2  swr_demo.list
DIS               11  swr_demo.dis
BAS6              13  swr_demo.bas
LPF               15  swr_demo.lpf
WEL               20  swr_demo.wel
PCG               27  swr_demo.pcg
OC                14  swr_demo.oc
DATA(BINARY)      51  swr_demo.hds REPLACE
