# DIS package for MODFLOW-2005 generated by Flopy 3.9.3
         1        15        25         3         4         2
  0
CONSTANT    2.000000E+02                           #delr                          
CONSTANT    2.000000E+02                           #delc                          
CONSTANT    5.000000E+01                           #model_top                     
CONSTANT    0.000000E+00                           #botm layer 1                  
    365.000000            12  1.000000  TR
    365.000000            12  1.000000  TR
    365.000000            12  1.000000  TR
