# WEL package for MODFLOW-2005 generated by Flopy 3.9.3
         2         0 
         2         0 # stress period 1
         1         6         9          -200.0
         1        11        16          -150.0
         2         0 # stress period 2
         1         6         9          -250.0
         1        11        16          -180.0
         2         0 # stress period 3
         1         6         9          -100.0
         1        11        16          -100.0
