# DRN package for MODFLOW-2005 generated by Flopy 3.9.3
         2        53
         2         0 # stress period 1
         1         6         6            45.0           100.0
         1         9         9            42.0            80.0
         2         0 # stress period 2
         1         6         6            44.0           100.0
         1         9         9            41.0            80.0
