# HOB package for MODFLOW-2005 generated by Flopy 3.9.3
         6         0         0        90     -9999   NOPRINT
         1
MW_CENTER               1          6          6         -2                  0.0     0.0000     0.0000     0.0000   # DATASET 3 - Observation 1
         1                                                                                                         # DATASET 5 - Observation 1
MW_CENTER.1             2                  0.0    54.4000                                                          # DATASET 6 - Observation 1.1
MW_CENTER.2             2                  1.0    55.2000                                                          # DATASET 6 - Observation 1.2
MW_NORTH                1          4          8         -2                  0.0     0.0000     0.0000     0.0000   # DATASET 3 - Observation 2
         1                                                                                                         # DATASET 5 - Observation 2
MW_NORTH.1              2                  0.0    48.1000                                                          # DATASET 6 - Observation 2.1
MW_NORTH.2              2                  1.0    47.9000                                                          # DATASET 6 - Observation 2.2
MW_SOUTH                1          9          5         -2                  0.0     0.0000     0.0000     0.0000   # DATASET 3 - Observation 3
         1                                                                                                         # DATASET 5 - Observation 3
MW_SOUTH.1              2                  0.0    52.3000                                                          # DATASET 6 - Observation 3.1
MW_SOUTH.2              2                  1.0    51.8000                                                          # DATASET 6 - Observation 3.2
