# File generated by Flopy version 3.9.3 on 08/08/2025 at 09:11:22.
BEGIN options
END options

BEGIN dimensions
  NPER  1
END dimensions

BEGIN perioddata
      10.00000000  10       1.00000000
END perioddata

