# File generated by Flopy version 3.9.3 on 08/08/2025 at 09:11:22.
BEGIN options
END options

BEGIN timing
  TDIS6  gridutil_demo.tdis
END timing

BEGIN models
  gwf6  model.nam  model
END models

BEGIN exchanges
END exchanges

BEGIN solutiongroup  1
  ims6  gridutil_demo.ims  model
END solutiongroup  1

