# File generated by Flopy version 3.9.3 on 08/08/2025 at 09:11:22.
BEGIN options
END options

BEGIN griddata
  icelltype
    CONSTANT  1
  k  LAYERED
    CONSTANT      10.00000000
    CONSTANT       5.00000000
    CONSTANT       1.00000000
END griddata

