# DIS package for MODFLOW-2005 generated by Flopy 3.9.3
         1        12        15         1         4         2
  0
CONSTANT    2.000000E+02                           #delr                          
CONSTANT    2.000000E+02                           #delc                          
CONSTANT    2.000000E+01                           #model_top                     
CONSTANT   -5.000000E+01                           #botm layer 1                  
      1.000000             1  1.000000  SS
