# GHB package for MODFLOW-2005 generated by Flopy 3.9.3
        42        53
        42         0 # stress period 1
         1         1        15             2.0           100.0
         1         2        15             2.0           100.0
         1         3        15             2.0           100.0
         1         4        15             2.0           100.0
         1         5        15             2.0           100.0
         1         6        15             2.0           100.0
         1         7        15             2.0           100.0
         1         8        15             2.0           100.0
         1         9        15             2.0           100.0
         1        10        15             2.0           100.0
         1        11        15             2.0           100.0
         1        12        15             2.0           100.0
         1         1         2             8.0            50.0
         1         1         3             8.0            50.0
         1         1         4             8.0            50.0
         1         1         5             8.0            50.0
         1         1         6             8.0            50.0
         1         1         7             8.0            50.0
         1         1         8             8.0            50.0
         1         1         9             8.0            50.0
         1         1        10             8.0            50.0
         1         1        11             8.0            50.0
         1         1        12             8.0            50.0
         1         1        13             8.0            50.0
         1         1        14             8.0            50.0
         1        12         2             5.0            30.0
         1        12         3             5.0            30.0
         1        12         4             5.0            30.0
         1        12         5             5.0            30.0
         1        12         6             5.0            30.0
         1        12         7             5.0            30.0
         1        12         8             5.0            30.0
         1        12         9             5.0            30.0
         1        12        10             5.0            30.0
         1        12        11             5.0            30.0
         1        12        12             5.0            30.0
         1        12        13             5.0            30.0
         1        12        14             5.0            30.0
         1         6         5            12.0            20.0
         1         8         7            12.0            20.0
         1         5         9            12.0            20.0
         1        10        11            12.0            20.0
