# Name file for MODFLOW-2005, generated by Flopy version 3.9.3.
#xll:0.0; yll:0.0; rotation:0.0; units:meters; lenuni:2; start_datetime:1-1-1970
LIST               2  ghb_demo.list
DIS               11  ghb_demo.dis
BAS6              13  ghb_demo.bas
LPF               15  ghb_demo.lpf
GHB               23  ghb_demo.ghb
OC                14  ghb_demo.oc
PCG               27  ghb_demo.pcg
DATA(BINARY)      53  ghb_demo.cbc REPLACE
DATA(BINARY)      51  ghb_demo.hds REPLACE
