# BAS6 package for MODFLOW-2005 generated by Flopy 3.9.3
FREE
INTERNAL               1    (15I10) -1 #ibound layer 1                
        -1         1         1         1         1         1         1         1         1         1         1         1         1         1         1
        -1         1         1         1         1         1         1         1         1         1         1         1         1         1         1
        -1         1         1         1         1         1         1         1         1         1         1         1         1         1         1
        -1         1         1         1         1         1         1         1         1         1         1         1         1         1         1
        -1         1         1         1         1         1         1         1         1         1         1         1         1         1         1
        -1         1         1         1         1         1         1         1         1         1         1         1         1         1         1
        -1         1         1         1         1         1         1         1         1         1         1         1         1         1         1
        -1         1         1         1         1         1         1         1         1         1         1         1         1         1         1
        -1         1         1         1         1         1         1         1         1         1         1         1         1         1         1
        -1         1         1         1         1         1         1         1         1         1         1         1         1         1         1
        -1         1         1         1         1         1         1         1         1         1         1         1         1         1         1
        -1         1         1         1         1         1         1         1         1         1         1         1         1         1         1
   -999.99
INTERNAL               1  (15E15.6) -1 #strt layer 1                  
   1.500000E+01   1.420000E+01   1.340000E+01   1.260000E+01   1.180000E+01   1.100000E+01   1.020000E+01   9.400000E+00   8.600000E+00   7.800000E+00   7.000000E+00   6.200000E+00   5.400000E+00   4.600000E+00   3.800000E+00
   1.500000E+01   1.420000E+01   1.340000E+01   1.260000E+01   1.180000E+01   1.100000E+01   1.020000E+01   9.400000E+00   8.600000E+00   7.800000E+00   7.000000E+00   6.200000E+00   5.400000E+00   4.600000E+00   3.800000E+00
   1.500000E+01   1.420000E+01   1.340000E+01   1.260000E+01   1.180000E+01   1.100000E+01   1.020000E+01   9.400000E+00   8.600000E+00   7.800000E+00   7.000000E+00   6.200000E+00   5.400000E+00   4.600000E+00   3.800000E+00
   1.500000E+01   1.420000E+01   1.340000E+01   1.260000E+01   1.180000E+01   1.100000E+01   1.020000E+01   9.400000E+00   8.600000E+00   7.800000E+00   7.000000E+00   6.200000E+00   5.400000E+00   4.600000E+00   3.800000E+00
   1.500000E+01   1.420000E+01   1.340000E+01   1.260000E+01   1.180000E+01   1.100000E+01   1.020000E+01   9.400000E+00   8.600000E+00   7.800000E+00   7.000000E+00   6.200000E+00   5.400000E+00   4.600000E+00   3.800000E+00
   1.500000E+01   1.420000E+01   1.340000E+01   1.260000E+01   1.180000E+01   1.100000E+01   1.020000E+01   9.400000E+00   8.600000E+00   7.800000E+00   7.000000E+00   6.200000E+00   5.400000E+00   4.600000E+00   3.800000E+00
   1.500000E+01   1.420000E+01   1.340000E+01   1.260000E+01   1.180000E+01   1.100000E+01   1.020000E+01   9.400000E+00   8.600000E+00   7.800000E+00   7.000000E+00   6.200000E+00   5.400000E+00   4.600000E+00   3.800000E+00
   1.500000E+01   1.420000E+01   1.340000E+01   1.260000E+01   1.180000E+01   1.100000E+01   1.020000E+01   9.400000E+00   8.600000E+00   7.800000E+00   7.000000E+00   6.200000E+00   5.400000E+00   4.600000E+00   3.800000E+00
   1.500000E+01   1.420000E+01   1.340000E+01   1.260000E+01   1.180000E+01   1.100000E+01   1.020000E+01   9.400000E+00   8.600000E+00   7.800000E+00   7.000000E+00   6.200000E+00   5.400000E+00   4.600000E+00   3.800000E+00
   1.500000E+01   1.420000E+01   1.340000E+01   1.260000E+01   1.180000E+01   1.100000E+01   1.020000E+01   9.400000E+00   8.600000E+00   7.800000E+00   7.000000E+00   6.200000E+00   5.400000E+00   4.600000E+00   3.800000E+00
   1.500000E+01   1.420000E+01   1.340000E+01   1.260000E+01   1.180000E+01   1.100000E+01   1.020000E+01   9.400000E+00   8.600000E+00   7.800000E+00   7.000000E+00   6.200000E+00   5.400000E+00   4.600000E+00   3.800000E+00
   1.500000E+01   1.420000E+01   1.340000E+01   1.260000E+01   1.180000E+01   1.100000E+01   1.020000E+01   9.400000E+00   8.600000E+00   7.800000E+00   7.000000E+00   6.200000E+00   5.400000E+00   4.600000E+00   3.800000E+00
