# WEL package for MODFLOW-2005 generated by Flopy 3.9.3
         3         0 
         3         0 # stress period 1
         1         8        16         -2000.0
         1        13         9         -1500.0
         1         5        13         -1000.0
