# DIS package for MODFLOW-2005 generated by Flopy 3.9.3
         1        15        20         1         4         2
  0
INTERNAL               1  (20E15.6) -1 #delr                          
   2.500000E+02   2.500000E+02   2.500000E+02   2.500000E+02   2.500000E+02   2.500000E+02   2.500000E+02   2.500000E+02   2.500000E+02   2.500000E+02   2.500000E+02   2.500000E+02   2.500000E+02   2.500000E+02   2.500000E+02   2.500000E+02   2.500000E+02   2.500000E+02   2.500000E+02   2.500000E+02
INTERNAL               1  (15E15.6) -1 #delc                          
   2.500000E+02   2.500000E+02   2.500000E+02   2.500000E+02   2.500000E+02   2.500000E+02   2.500000E+02   2.500000E+02   2.500000E+02   2.500000E+02   2.500000E+02   2.500000E+02   2.500000E+02   2.500000E+02   2.500000E+02
CONSTANT    2.500000E+01                           #model_top                     
CONSTANT    0.000000E+00                           #botm layer 1                  
    365.000000             1  1.000000  SS
