# SFR package for MODFLOW-NWT generated by Flopy 3.9.3
8 1 0 0 86400.00000000 0.00010000 0 0 
1 2 5 1 1 100.0
1 3 5 1 2 100.0
1 4 5 1 3 100.0
1 5 5 1 4 100.0
1 6 5 1 5 100.0
1 7 5 1 6 100.0
1 8 5 1 7 100.0
1 9 5 1 8 100.0
1 0 0
1 0 0 0 50.0 0 0 0 
98.0 1.0 0 0 0 
94.0 1.0 0 0 0 
