# Name file for MODFLOW-NWT, generated by Flopy version 3.9.3.
#xll:0.0; yll:0.0; rotation:0.0; units:meters; lenuni:2; start_datetime:1-1-1970
LIST               2  sfr_ag_working.list
DIS               11  sfr_ag_working.dis
BAS6              13  sfr_ag_working.bas
UPW               31  sfr_ag_working.upw
SFR               17  sfr_ag_working.sfr
AG                69  sfr_ag_working.ag
NWT               32  sfr_ag_working.nwt
OC                14  sfr_ag_working.oc
DATA(BINARY)      51  sfr_ag_working.hds REPLACE
