# NWT package for MODFLOW-NWT generated by Flopy 3.9.3
 1.000e-01 5.000e+03       200 1.000e-05         1         0         0   COMPLEX
