# File generated by Flopy version 3.9.3 on 08/07/2025 at 12:22:06.
BEGIN options
END options

BEGIN dimensions
  MAXBOUND  1
END dimensions

BEGIN period  1
  3 11 10 -1.50000000E+05
END period  1

