# MPSIM package for MODPATH 7 generated by Flopy 3.9.3
mp7_mf6_demo_mp7.mpnam
mp7_mf6_demo_mp7.mplst
2 1 2 1 1 0
mp7_mf6_demo_mp7.mpend
mp7_mf6_demo_mp7.mppth
0
1
0
2
1
1
1
RECHARGE
1
0.0
INTERNAL
3
1 121
2 121 0
 1 1 1
 106 107 108 109 110 111 112 113 114 115 116
 126 127 128 129 130 131 132 133 134 135
 136 146 147 148 149 150 151 152 153 154
 155 156 166 167 168 169 170 171 172 173
 174 175 176 186 187 188 189 190 191 192
 193 194 195 196 206 207 208 209 210 211
 212 213 214 215 216 226 227 228 229 230
 231 232 233 234 235 236 246 247 248 249
 250 251 252 253 254 255 256 266 267 268
 269 270 271 272 273 274 275 276 286 287
 288 289 290 291 292 293 294 295 296 306
 307 308 309 310 311 312 313 314 315 316
