# File generated by Flopy version 3.9.3 on 08/07/2025 at 12:22:06.
BEGIN options
END options

BEGIN griddata
  strt
    CONSTANT     400.00000000
END griddata

