# Name file for MODPATH 7, generated by Flopy version 3.9.3.
MPBAS      mp7_mf6_demo_mp7.mpbas
GRBDIS     ./mp7_mf6_demo.dis.grb
TDIS       ./mp7_mf6_demo.tdis
HEAD       ./mp7_mf6_demo.hds
BUDGET     ./mp7_mf6_demo.cbb
