# File generated by Flopy version 3.9.3 on 08/07/2025 at 12:22:06.
BEGIN options
  SAVE_FLOWS
END options

BEGIN packages
  DIS6  mp7_mf6_demo.dis  dis
  IC6  mp7_mf6_demo.ic  ic
  NPF6  mp7_mf6_demo.npf  npf
  RCH6  mp7_mf6_demo.rcha  rcha_0
  WEL6  mp7_mf6_demo.wel  wel_0
  RIV6  mp7_mf6_demo.riv  riv_0
  OC6  mp7_mf6_demo.oc  oc
END packages

