# File generated by Flopy version 3.9.3 on 08/07/2025 at 12:22:06.
BEGIN options
END options

BEGIN dimensions
  MAXBOUND  21
END dimensions

BEGIN period  1
  1 1 20 3.20000000E+02 1.00000000E+05 3.17000000E+02
  1 2 20 3.20000000E+02 1.00000000E+05 3.17000000E+02
  1 3 20 3.20000000E+02 1.00000000E+05 3.17000000E+02
  1 4 20 3.20000000E+02 1.00000000E+05 3.17000000E+02
  1 5 20 3.20000000E+02 1.00000000E+05 3.17000000E+02
  1 6 20 3.20000000E+02 1.00000000E+05 3.17000000E+02
  1 7 20 3.20000000E+02 1.00000000E+05 3.17000000E+02
  1 8 20 3.20000000E+02 1.00000000E+05 3.17000000E+02
  1 9 20 3.20000000E+02 1.00000000E+05 3.17000000E+02
  1 10 20 3.20000000E+02 1.00000000E+05 3.17000000E+02
  1 11 20 3.20000000E+02 1.00000000E+05 3.17000000E+02
  1 12 20 3.20000000E+02 1.00000000E+05 3.17000000E+02
  1 13 20 3.20000000E+02 1.00000000E+05 3.17000000E+02
  1 14 20 3.20000000E+02 1.00000000E+05 3.17000000E+02
  1 15 20 3.20000000E+02 1.00000000E+05 3.17000000E+02
  1 16 20 3.20000000E+02 1.00000000E+05 3.17000000E+02
  1 17 20 3.20000000E+02 1.00000000E+05 3.17000000E+02
  1 18 20 3.20000000E+02 1.00000000E+05 3.17000000E+02
  1 19 20 3.20000000E+02 1.00000000E+05 3.17000000E+02
  1 20 20 3.20000000E+02 1.00000000E+05 3.17000000E+02
  1 21 20 3.20000000E+02 1.00000000E+05 3.17000000E+02
END period  1

