# # MPBAS package for MODPATH 7 generated by Flopy 3.9.3
2                   # DEFAULTIFACECOUNT
RECHARGE            # PACKAGE LABEL
6                   # DEFAULT IFACE VALUE
ET                  # PACKAGE LABEL
6                   # DEFAULT IFACE VALUE
CONSTANT    3.000000E-01                           #porosity layer 1              
CONSTANT    3.000000E-01                           #porosity layer 2              
CONSTANT    3.000000E-01                           #porosity layer 3              
