# File generated by Flopy version 3.9.3 on 08/07/2025 at 12:22:06.
BEGIN options
  TIME_UNITS  days
END options

BEGIN dimensions
  NPER  1
END dimensions

BEGIN perioddata
       1.00000000  1       1.00000000
END perioddata

