# SWT package for MODFLOW-2005 generated by Flopy 3.9.3
0 1 3 0 0 1 0
1 2 3 
0 1 0 0 0 0 0 0 0 0
CONSTANT    0.000000E+00                           #gl0                           
CONSTANT    1.700000E+00                           #sgm                           
CONSTANT    2.000000E+00                           #sgs                           
CONSTANT    1.000000E+01                           #thick system 1                
CONSTANT    1.000000E-03                           #cr system 1                   
CONSTANT    1.000000E-02                           #cc system 1                   
CONSTANT    8.200000E-01                           #void system 1                 
CONSTANT    0.000000E+00                           #sub system 1                  
CONSTANT    1.500000E+01                           #thick system 2                
CONSTANT    1.000000E-03                           #cr system 2                   
CONSTANT    1.000000E-02                           #cc system 2                   
CONSTANT    8.200000E-01                           #void system 2                 
CONSTANT    0.000000E+00                           #sub system 2                  
CONSTANT    1.000000E+01                           #thick system 3                
CONSTANT    1.000000E-03                           #cr system 3                   
CONSTANT    1.000000E-02                           #cc system 3                   
CONSTANT    8.200000E-01                           #void system 3                 
CONSTANT    0.000000E+00                           #sub system 3                  
CONSTANT    5.000000E+00                           #pcsoff layer 1                
CONSTANT    5.000000E+00                           #pcsoff layer 2                
CONSTANT    5.000000E+00                           #pcsoff layer 3                
0 2052 0 2053 0 2054 0 2055 0 2056 0 2057 0 2058 0 2059 0 2060 0 2061 0 2062 0 2063 0 2064   #dataset 16
1 10000 1 10000 1 1 1 1 1 1 1 1 1 1 1 1 1 1 1 1 1 1 1 1 1 1 1 1 1 1   #dataset 17 iswtoc 1
