# WEL package for MODFLOW-2005 generated by Flopy 3.9.3
         1         0 
         0         0 # stress period 1
         1         0 # stress period 2
         2         6         6          -500.0
