# Name file for MODFLOW-2005, generated by Flopy version 3.9.3.
#xll:0.0; yll:0.0; rotation:0.0; units:meters; lenuni:2; start_datetime:1-1-1970
LIST               2  subwt_demo.list
DIS               11  subwt_demo.dis
BAS6              13  subwt_demo.bas
LPF               15  subwt_demo.lpf
WEL               20  subwt_demo.wel
SWT               35  subwt_demo.swt
OC                14  subwt_demo.oc
PCG               27  subwt_demo.pcg
DATA(BINARY)    2052  subwt_demo.swt_subsidence.hds REPLACE
DATA(BINARY)    2053  subwt_demo.swt_total_comp.hds REPLACE
DATA(BINARY)    2054  subwt_demo.swt_inter_comp.hds REPLACE
DATA(BINARY)    2055  subwt_demo.swt_vert_disp.hds REPLACE
DATA(BINARY)    2056  subwt_demo.swt_precon_stress.hds REPLACE
DATA(BINARY)    2057  subwt_demo.swt_precon_stress_delta.hds REPLACE
DATA(BINARY)    2058  subwt_demo.swt_geostatic_stress.hds REPLACE
DATA(BINARY)    2059  subwt_demo.swt_geostatic_stress_delta.hds REPLACE
DATA(BINARY)    2060  subwt_demo.swt_eff_stress.hds REPLACE
DATA(BINARY)    2061  subwt_demo.swt_eff_stress_delta.hds REPLACE
DATA(BINARY)    2062  subwt_demo.swt_void_ratio.hds REPLACE
DATA(BINARY)    2063  subwt_demo.swt_thick.hds REPLACE
DATA(BINARY)    2064  subwt_demo.swt_lay_center.hds REPLACE
DATA(BINARY)      51  subwt_demo.hds REPLACE
