# File generated by Flopy version 3.9.3 on 08/07/2025 at 00:17:44.
BEGIN options
END options

BEGIN dimensions
  NPER  2
END dimensions

BEGIN perioddata
       1.00000000  1       1.00000000
   86400.00000000  50       1.00000000
END perioddata

