# File generated by Flopy version 3.9.3 on 08/07/2025 at 00:17:44.
BEGIN options
  SAVE_FLOWS
END options

BEGIN packages
  DIS6  formhead.dis  dis
  NPF6  formhead.npf  npf
  IC6  formhead.ic  ic
  CHD6  formhead.chd  chd_0
  OC6  formhead.oc  oc
END packages

