# BAS6 package for MODFLOW-2005 generated by Flopy 3.9.3
FREE
INTERNAL               1     (5I10) -1 #ibound layer 1                
        -1         1         1         1         1
         1         1         1         1         1
         1         1         1         1         1
         1         1         1         1         1
         1         1         1         1        -1
   -999.99
INTERNAL               1   (5E15.6) -1 #strt layer 1                  
   9.600000E+01   9.500000E+01   9.500000E+01   9.500000E+01   9.500000E+01
   9.500000E+01   9.500000E+01   9.500000E+01   9.500000E+01   9.500000E+01
   9.500000E+01   9.500000E+01   9.500000E+01   9.500000E+01   9.500000E+01
   9.500000E+01   9.500000E+01   9.500000E+01   9.500000E+01   9.500000E+01
   9.500000E+01   9.500000E+01   9.500000E+01   9.500000E+01   9.400000E+01
