# Name file for MODFLOW-2005, generated by Flopy version 3.9.3.
#xll:0.0; yll:0.0; rotation:0.0; units:meters; lenuni:2; start_datetime:1-1-1970
LIST               2  sfr_converged.list
DIS               11  sfr_converged.dis
BAS6              13  sfr_converged.bas
LPF               15  sfr_converged.lpf
SFR               17  sfr_converged.sfr
PCG               27  sfr_converged.pcg
OC                14  sfr_converged.oc
DATA(BINARY)      53  sfr_converged.cbc REPLACE
DATA(BINARY)      51  sfr_converged.hds REPLACE
