# Name file for MODFLOW-2005, generated by Flopy version 3.9.3.
#xll:0.0; yll:0.0; rotation:0.0; units:meters; lenuni:2; start_datetime:1-1-1970
LIST               2  mt3d_demo.list
DIS               11  mt3d_demo.dis
BAS6              13  mt3d_demo.bas
LPF               15  mt3d_demo.lpf
WEL               20  mt3d_demo.wel
RCH               19  mt3d_demo.rch
RIV               18  mt3d_demo.riv
PCG               27  mt3d_demo.pcg
OC                14  mt3d_demo.oc
LMT6              30  mt3d_demo.lmt6
DATA(BINARY)      53  mt3d_demo.cbc REPLACE
DATA(BINARY)      51  mt3d_demo.hds REPLACE
