# WEL package for MODFLOW-2005 generated by Flopy 3.9.3
         2         0 
         2         0 # stress period 1
         1         6         6          -500.0
         2        11        11           200.0
         2         0 # stress period 2
         1         6         6          -800.0
         2        11        11           300.0
         2         0 # stress period 3
         1         6         6          -500.0
         2        11        11           200.0
