# File generated by Flopy version 3.9.3 on 08/07/2025 at 22:48:40.
BEGIN options
  BUDGET  FILEOUT  model.cbc
  HEAD  FILEOUT  model.hds
END options

BEGIN period  1
  SAVE  HEAD  ALL
  SAVE  BUDGET  ALL
  PRINT  HEAD  ALL
  PRINT  BUDGET  ALL
END period  1

