# File generated by Flopy version 3.9.3 on 08/08/2025 at 09:11:09.
BEGIN options
  SAVE_FLOWS
END options

BEGIN packages
  DIS6  model.dis  dis
  NPF6  model.npf  npf
  IC6  model.ic  ic
  CHD6  model.chd  chd_0
  OC6  model.oc  oc
END packages

