# BAS6 package for MODFLOW-2005 generated by Flopy 3.9.3
FREE
INTERNAL               1     (5I10) -1 #ibound layer 1                
        -1        -1        -1        -1        -1
         1         1         1         1         1
         1         1         1         1         1
         1         1         1         1         1
        -1        -1        -1        -1        -1
INTERNAL               1     (5I10) -1 #ibound layer 2                
        -1        -1        -1        -1        -1
         1         1         1         1         1
         1         1         1         1         1
         1         1         1         1         1
        -1        -1        -1        -1        -1
INTERNAL               1     (5I10) -1 #ibound layer 3                
        -1        -1        -1        -1        -1
         1         1         1         1         1
         1         1         1         1         1
         1         1         1         1         1
        -1        -1        -1        -1        -1
   -999.99
INTERNAL               1   (5E15.6) -1 #strt layer 1                  
   5.000000E+00   5.000000E+00   5.000000E+00   5.000000E+00   5.000000E+00
   1.000000E+00   1.000000E+00   1.000000E+00   1.000000E+00   1.000000E+00
   1.000000E+00   1.000000E+00   1.000000E+00   1.000000E+00   1.000000E+00
   1.000000E+00   1.000000E+00   1.000000E+00   1.000000E+00   1.000000E+00
   0.000000E+00   0.000000E+00   0.000000E+00   0.000000E+00   0.000000E+00
INTERNAL               1   (5E15.6) -1 #strt layer 2                  
   5.000000E+00   5.000000E+00   5.000000E+00   5.000000E+00   5.000000E+00
   1.000000E+00   1.000000E+00   1.000000E+00   1.000000E+00   1.000000E+00
   1.000000E+00   1.000000E+00   1.000000E+00   1.000000E+00   1.000000E+00
   1.000000E+00   1.000000E+00   1.000000E+00   1.000000E+00   1.000000E+00
   0.000000E+00   0.000000E+00   0.000000E+00   0.000000E+00   0.000000E+00
INTERNAL               1   (5E15.6) -1 #strt layer 3                  
   5.000000E+00   5.000000E+00   5.000000E+00   5.000000E+00   5.000000E+00
   1.000000E+00   1.000000E+00   1.000000E+00   1.000000E+00   1.000000E+00
   1.000000E+00   1.000000E+00   1.000000E+00   1.000000E+00   1.000000E+00
   1.000000E+00   1.000000E+00   1.000000E+00   1.000000E+00   1.000000E+00
   0.000000E+00   0.000000E+00   0.000000E+00   0.000000E+00   0.000000E+00
