# MNW2 package for MODFLOW-2005 generated by Flopy 3.9.3
1 0 0
production_well 3
            skin -1 0 0 0
               5.0000000E-01    2.0000000E+00    5.0000000E+00
            1 3 3
            2 3 3
            3 3 3
               5.0000000E+00
1  Stress Period 1
production_well    0.0000000E+00
1  Stress Period 2
production_well   -5.0000000E+02
