# File generated by Flopy version 3.9.3 on 08/06/2025 at 19:04:49.
BEGIN options
END options

BEGIN timing
  TDIS6  structured_export.tdis
END timing

BEGIN models
  gwf6  model.nam  model
END models

BEGIN exchanges
END exchanges

BEGIN solutiongroup  1
  ims6  structured_export.ims  model
END solutiongroup  1

