# File generated by Flopy version 3.9.3 on 08/06/2025 at 19:04:49.
BEGIN options
END options

BEGIN dimensions
  NLAY  3
  NROW  10
  NCOL  10
END dimensions

BEGIN griddata
  delr
    CONSTANT     100.00000000
  delc
    CONSTANT     100.00000000
  top
    CONSTANT     100.00000000
  botm  LAYERED
    CONSTANT      80.00000000
    CONSTANT      60.00000000
    CONSTANT      40.00000000
END griddata

