# File generated by Flopy version 3.9.3 on 08/06/2025 at 19:04:49.
BEGIN options
END options

BEGIN griddata
  icelltype
    CONSTANT  0
  k  LAYERED
    INTERNAL  FACTOR  1.0
          10.00000000      10.00000000      10.00000000      10.00000000      10.00000000      10.00000000      10.00000000      10.00000000      10.00000000      10.00000000
          10.00000000      10.00000000      10.00000000      10.00000000      10.00000000      10.00000000      10.00000000      10.00000000      10.00000000      10.00000000
          10.00000000      10.00000000      10.00000000      10.00000000      10.00000000      10.00000000      10.00000000      10.00000000      10.00000000      10.00000000
          10.00000000      10.00000000      10.00000000      10.00000000      10.00000000      10.00000000      10.00000000      10.00000000      10.00000000      10.00000000
          10.00000000      10.00000000      10.00000000      10.00000000      10.00000000      10.00000000      10.00000000      10.00000000      10.00000000      10.00000000
          10.00000000      10.00000000      10.00000000      10.00000000      10.00000000      10.00000000      10.00000000      10.00000000      10.00000000      10.00000000
          10.00000000      10.00000000      10.00000000      10.00000000      10.00000000      10.00000000      10.00000000      10.00000000      10.00000000      10.00000000
          10.00000000      10.00000000      10.00000000      10.00000000      10.00000000      10.00000000      10.00000000      10.00000000      10.00000000      10.00000000
          10.00000000      10.00000000      10.00000000      10.00000000      10.00000000      10.00000000      10.00000000      10.00000000      10.00000000      10.00000000
          10.00000000      10.00000000      10.00000000      10.00000000      10.00000000      10.00000000      10.00000000      10.00000000      10.00000000      10.00000000
    INTERNAL  FACTOR  1.0
           5.00000000       5.00000000       5.00000000       5.00000000       5.00000000       5.00000000       5.00000000       5.00000000       5.00000000       5.00000000
           5.00000000       5.00000000       5.00000000       5.00000000       5.00000000       5.00000000       5.00000000       5.00000000       5.00000000       5.00000000
           5.00000000       5.00000000       5.00000000       5.00000000       5.00000000       5.00000000       5.00000000       5.00000000       5.00000000       5.00000000
           5.00000000       5.00000000       5.00000000       5.00000000       5.00000000       5.00000000       5.00000000       5.00000000       5.00000000       5.00000000
           5.00000000       5.00000000       5.00000000       5.00000000       5.00000000       5.00000000       5.00000000       5.00000000       5.00000000       5.00000000
           5.00000000       5.00000000       5.00000000       5.00000000       5.00000000       5.00000000       5.00000000       5.00000000       5.00000000       5.00000000
           5.00000000       5.00000000       5.00000000       5.00000000       5.00000000       5.00000000       5.00000000       5.00000000       5.00000000       5.00000000
           5.00000000       5.00000000       5.00000000       5.00000000       5.00000000       5.00000000       5.00000000       5.00000000       5.00000000       5.00000000
           5.00000000       5.00000000       5.00000000       5.00000000       5.00000000       5.00000000       5.00000000       5.00000000       5.00000000       5.00000000
           5.00000000       5.00000000       5.00000000       5.00000000       5.00000000       5.00000000       5.00000000       5.00000000       5.00000000       5.00000000
    INTERNAL  FACTOR  1.0
           1.00000000       1.00000000       1.00000000       1.00000000       1.00000000       1.00000000       1.00000000       1.00000000       1.00000000       1.00000000
           1.00000000       1.00000000       1.00000000       1.00000000       1.00000000       1.00000000       1.00000000       1.00000000       1.00000000       1.00000000
           1.00000000       1.00000000       1.00000000       1.00000000       1.00000000       1.00000000       1.00000000       1.00000000       1.00000000       1.00000000
           1.00000000       1.00000000       1.00000000       1.00000000       1.00000000       1.00000000       1.00000000       1.00000000       1.00000000       1.00000000
           1.00000000       1.00000000       1.00000000       1.00000000       1.00000000       1.00000000       1.00000000       1.00000000       1.00000000       1.00000000
           1.00000000       1.00000000       1.00000000       1.00000000       1.00000000       1.00000000       1.00000000       1.00000000       1.00000000       1.00000000
           1.00000000       1.00000000       1.00000000       1.00000000       1.00000000       1.00000000       1.00000000       1.00000000       1.00000000       1.00000000
           1.00000000       1.00000000       1.00000000       1.00000000       1.00000000       1.00000000       1.00000000       1.00000000       1.00000000       1.00000000
           1.00000000       1.00000000       1.00000000       1.00000000       1.00000000       1.00000000       1.00000000       1.00000000       1.00000000       1.00000000
           1.00000000       1.00000000       1.00000000       1.00000000       1.00000000       1.00000000       1.00000000       1.00000000       1.00000000       1.00000000
END griddata

