# File generated by Flopy version 3.9.3 on 08/06/2025 at 19:04:49.
BEGIN options
END options

BEGIN griddata
  strt  LAYERED
    INTERNAL  FACTOR  1.0
          95.00000000      95.00000000      95.00000000      95.00000000      95.00000000      95.00000000      95.00000000      95.00000000      95.00000000      95.00000000
          95.00000000      95.00000000      95.00000000      95.00000000      95.00000000      95.00000000      95.00000000      95.00000000      95.00000000      95.00000000
          95.00000000      95.00000000      95.00000000      95.00000000      95.00000000      95.00000000      95.00000000      95.00000000      95.00000000      95.00000000
          95.00000000      95.00000000      95.00000000      95.00000000      95.00000000      95.00000000      95.00000000      95.00000000      95.00000000      95.00000000
          95.00000000      95.00000000      95.00000000      95.00000000      95.00000000      95.00000000      95.00000000      95.00000000      95.00000000      95.00000000
          95.00000000      95.00000000      95.00000000      95.00000000      95.00000000      95.00000000      95.00000000      95.00000000      95.00000000      95.00000000
          95.00000000      95.00000000      95.00000000      95.00000000      95.00000000      95.00000000      95.00000000      95.00000000      95.00000000      95.00000000
          95.00000000      95.00000000      95.00000000      95.00000000      95.00000000      95.00000000      95.00000000      95.00000000      95.00000000      95.00000000
          95.00000000      95.00000000      95.00000000      95.00000000      95.00000000      95.00000000      95.00000000      95.00000000      95.00000000      95.00000000
          95.00000000      95.00000000      95.00000000      95.00000000      95.00000000      95.00000000      95.00000000      95.00000000      95.00000000      95.00000000
    INTERNAL  FACTOR  1.0
          95.00000000      95.00000000      95.00000000      95.00000000      95.00000000      95.00000000      95.00000000      95.00000000      95.00000000      95.00000000
          95.00000000      95.00000000      95.00000000      95.00000000      95.00000000      95.00000000      95.00000000      95.00000000      95.00000000      95.00000000
          95.00000000      95.00000000      95.00000000      95.00000000      95.00000000      95.00000000      95.00000000      95.00000000      95.00000000      95.00000000
          95.00000000      95.00000000      95.00000000      95.00000000      95.00000000      95.00000000      95.00000000      95.00000000      95.00000000      95.00000000
          95.00000000      95.00000000      95.00000000      95.00000000      95.00000000      95.00000000      95.00000000      95.00000000      95.00000000      95.00000000
          95.00000000      95.00000000      95.00000000      95.00000000      95.00000000      95.00000000      95.00000000      95.00000000      95.00000000      95.00000000
          95.00000000      95.00000000      95.00000000      95.00000000      95.00000000      95.00000000      95.00000000      95.00000000      95.00000000      95.00000000
          95.00000000      95.00000000      95.00000000      95.00000000      95.00000000      95.00000000      95.00000000      95.00000000      95.00000000      95.00000000
          95.00000000      95.00000000      95.00000000      95.00000000      95.00000000      95.00000000      95.00000000      95.00000000      95.00000000      95.00000000
          95.00000000      95.00000000      95.00000000      95.00000000      95.00000000      95.00000000      95.00000000      95.00000000      95.00000000      95.00000000
    INTERNAL  FACTOR  1.0
          95.00000000      95.00000000      95.00000000      95.00000000      95.00000000      95.00000000      95.00000000      95.00000000      95.00000000      95.00000000
          95.00000000      95.00000000      95.00000000      95.00000000      95.00000000      95.00000000      95.00000000      95.00000000      95.00000000      95.00000000
          95.00000000      95.00000000      95.00000000      95.00000000      95.00000000      95.00000000      95.00000000      95.00000000      95.00000000      95.00000000
          95.00000000      95.00000000      95.00000000      95.00000000      95.00000000      95.00000000      95.00000000      95.00000000      95.00000000      95.00000000
          95.00000000      95.00000000      95.00000000      95.00000000      95.00000000      95.00000000      95.00000000      95.00000000      95.00000000      95.00000000
          95.00000000      95.00000000      95.00000000      95.00000000      95.00000000      95.00000000      95.00000000      95.00000000      95.00000000      95.00000000
          95.00000000      95.00000000      95.00000000      95.00000000      95.00000000      95.00000000      95.00000000      95.00000000      95.00000000      95.00000000
          95.00000000      95.00000000      95.00000000      95.00000000      95.00000000      95.00000000      95.00000000      95.00000000      95.00000000      95.00000000
          95.00000000      95.00000000      95.00000000      95.00000000      95.00000000      95.00000000      95.00000000      95.00000000      95.00000000      95.00000000
          95.00000000      95.00000000      95.00000000      95.00000000      95.00000000      95.00000000      95.00000000      95.00000000      95.00000000      95.00000000
END griddata

