# File generated by Flopy version 3.9.3 on 08/06/2025 at 19:04:49.
BEGIN options
  PRINT_OPTION  summary
END options

