# File generated by Flopy version 3.9.3 on 08/07/2025 at 18:19:46.
BEGIN options
  COMPLEXITY  simple
END options

