# File generated by Flopy version 3.9.3 on 08/08/2025 at 09:11:19.
BEGIN options
  COMPLEXITY  simple
END options

