# File generated by Flopy version 3.9.3 on 08/08/2025 at 09:11:19.
BEGIN options
END options

BEGIN dimensions
  NLAY  2
  NROW  10
  NCOL  10
END dimensions

BEGIN griddata
  delr
    CONSTANT     100.00000000
  delc
    CONSTANT     100.00000000
  top
    CONSTANT      10.00000000
  botm  LAYERED
    CONSTANT       5.00000000
    CONSTANT       0.00000000
END griddata

