# CHD package for MODFLOW-2005 generated by Flopy 3.9.3
         2
         2         0 # stress period 1
         1         1         1            50.0            50.0
         1        10        10            45.0            45.0
