# DIS package for MODFLOW-2005 generated by Flopy 3.9.3
         1        11        21         1         4         2
  0
INTERNAL               1  (21E15.6) -1 #delr                          
   2.000000E+02   2.000000E+02   2.000000E+02   2.000000E+02   2.000000E+02   2.000000E+02   2.000000E+02   2.000000E+02   5.000000E+01   5.000000E+01   5.000000E+01   5.000000E+01   5.000000E+01   2.000000E+02   2.000000E+02   2.000000E+02   2.000000E+02   2.000000E+02   2.000000E+02   2.000000E+02   2.000000E+02
INTERNAL               1  (11E15.6) -1 #delc                          
   2.000000E+02   2.000000E+02   2.000000E+02   2.000000E+02   5.000000E+01   5.000000E+01   5.000000E+01   2.000000E+02   2.000000E+02   2.000000E+02   2.000000E+02
CONSTANT    3.000000E+01                           #model_top                     
CONSTANT    0.000000E+00                           #botm layer 1                  
      1.000000             1  1.000000  SS
