# Name file for MODFLOW-2005, generated by Flopy version 3.9.3.
#xll:0.0; yll:0.0; rotation:0.0; units:meters; lenuni:2; start_datetime:1-1-1970
LIST               2  dis_simple.list
DIS               11  dis_simple.dis
BAS6              13  dis_simple.bas
LPF               15  dis_simple.lpf
CHD               24  dis_simple.chd
OC                14  dis_simple.oc
PCG               27  dis_simple.pcg
DATA(BINARY)      51  dis_simple.hds REPLACE
