# File generated by Flopy version 3.9.3 on 08/08/2025 at 09:11:13.
BEGIN options
END options

BEGIN dimensions
  MAXBOUND  126
END dimensions

BEGIN period  1
  1 1 3.50000000E+02
  1 20 3.40000000E+02
  1 21 3.50000000E+02
  1 40 3.40000000E+02
  1 41 3.50000000E+02
  1 60 3.40000000E+02
  1 61 3.50000000E+02
  1 80 3.40000000E+02
  1 81 3.50000000E+02
  1 100 3.40000000E+02
  1 101 3.50000000E+02
  1 120 3.40000000E+02
  1 121 3.50000000E+02
  1 140 3.40000000E+02
  1 141 3.50000000E+02
  1 160 3.40000000E+02
  1 161 3.50000000E+02
  1 180 3.40000000E+02
  1 181 3.50000000E+02
  1 200 3.40000000E+02
  1 201 3.50000000E+02
  1 220 3.40000000E+02
  1 221 3.50000000E+02
  1 240 3.40000000E+02
  1 241 3.50000000E+02
  1 260 3.40000000E+02
  1 261 3.50000000E+02
  1 280 3.40000000E+02
  1 281 3.50000000E+02
  1 300 3.40000000E+02
  1 301 3.50000000E+02
  1 320 3.40000000E+02
  1 321 3.50000000E+02
  1 340 3.40000000E+02
  1 341 3.50000000E+02
  1 360 3.40000000E+02
  1 361 3.50000000E+02
  1 380 3.40000000E+02
  1 381 3.50000000E+02
  1 400 3.40000000E+02
  1 401 3.50000000E+02
  1 420 3.40000000E+02
  2 1 3.50000000E+02
  2 20 3.40000000E+02
  2 21 3.50000000E+02
  2 40 3.40000000E+02
  2 41 3.50000000E+02
  2 60 3.40000000E+02
  2 61 3.50000000E+02
  2 80 3.40000000E+02
  2 81 3.50000000E+02
  2 100 3.40000000E+02
  2 101 3.50000000E+02
  2 120 3.40000000E+02
  2 121 3.50000000E+02
  2 140 3.40000000E+02
  2 141 3.50000000E+02
  2 160 3.40000000E+02
  2 161 3.50000000E+02
  2 180 3.40000000E+02
  2 181 3.50000000E+02
  2 200 3.40000000E+02
  2 201 3.50000000E+02
  2 220 3.40000000E+02
  2 221 3.50000000E+02
  2 240 3.40000000E+02
  2 241 3.50000000E+02
  2 260 3.40000000E+02
  2 261 3.50000000E+02
  2 280 3.40000000E+02
  2 281 3.50000000E+02
  2 300 3.40000000E+02
  2 301 3.50000000E+02
  2 320 3.40000000E+02
  2 321 3.50000000E+02
  2 340 3.40000000E+02
  2 341 3.50000000E+02
  2 360 3.40000000E+02
  2 361 3.50000000E+02
  2 380 3.40000000E+02
  2 381 3.50000000E+02
  2 400 3.40000000E+02
  2 401 3.50000000E+02
  2 420 3.40000000E+02
  3 1 3.50000000E+02
  3 20 3.40000000E+02
  3 21 3.50000000E+02
  3 40 3.40000000E+02
  3 41 3.50000000E+02
  3 60 3.40000000E+02
  3 61 3.50000000E+02
  3 80 3.40000000E+02
  3 81 3.50000000E+02
  3 100 3.40000000E+02
  3 101 3.50000000E+02
  3 120 3.40000000E+02
  3 121 3.50000000E+02
  3 140 3.40000000E+02
  3 141 3.50000000E+02
  3 160 3.40000000E+02
  3 161 3.50000000E+02
  3 180 3.40000000E+02
  3 181 3.50000000E+02
  3 200 3.40000000E+02
  3 201 3.50000000E+02
  3 220 3.40000000E+02
  3 221 3.50000000E+02
  3 240 3.40000000E+02
  3 241 3.50000000E+02
  3 260 3.40000000E+02
  3 261 3.50000000E+02
  3 280 3.40000000E+02
  3 281 3.50000000E+02
  3 300 3.40000000E+02
  3 301 3.50000000E+02
  3 320 3.40000000E+02
  3 321 3.50000000E+02
  3 340 3.40000000E+02
  3 341 3.50000000E+02
  3 360 3.40000000E+02
  3 361 3.50000000E+02
  3 380 3.40000000E+02
  3 381 3.50000000E+02
  3 400 3.40000000E+02
  3 401 3.50000000E+02
  3 420 3.40000000E+02
END period  1

