# File generated by Flopy version 3.9.3 on 08/07/2025 at 18:48:33.
BEGIN options
  SAVE_FLOWS
END options

BEGIN packages
  DISV6  disv_model.disv  disv
  NPF6  disv_model.npf  npf
  IC6  disv_model.ic  ic
  CHD6  disv_model.chd  chd_0
  OC6  disv_model.oc  oc
END packages

