# File generated by Flopy version 3.9.3 on 08/07/2025 at 18:48:33.
BEGIN options
  BUDGET  FILEOUT  disv_model.cbc
  HEAD  FILEOUT  disv_model.hds
END options

BEGIN period  1
  SAVE  HEAD  ALL
  SAVE  BUDGET  ALL
END period  1

