# File generated by Flopy version 3.9.3 on 08/07/2025 at 18:48:33.
BEGIN options
  COMPLEXITY  simple
END options

BEGIN nonlinear
  OUTER_MAXIMUM  100
END nonlinear

BEGIN linear
  INNER_MAXIMUM  100
END linear

