# File generated by Flopy version 3.9.3 on 08/07/2025 at 18:48:33.
BEGIN options
END options

BEGIN griddata
  strt
    CONSTANT     350.00000000
END griddata

