# File generated by Flopy version 3.9.3 on 08/08/2025 at 09:11:13.
BEGIN options
  COMPLEXITY  simple
END options

BEGIN nonlinear
  OUTER_MAXIMUM  100
END nonlinear

BEGIN linear
  INNER_MAXIMUM  100
END linear

