# File generated by Flopy version 3.9.3 on 08/07/2025 at 18:48:33.
BEGIN options
  XORIGIN    3000.00000000
  YORIGIN    1000.00000000
  ANGROT      10.00000000
END options

BEGIN dimensions
  NLAY  3
  NCPL  420
  NVERT  462
END dimensions

BEGIN griddata
  top
    CONSTANT     400.00000000
  botm  LAYERED
    CONSTANT     220.00000000
    CONSTANT     200.00000000
    CONSTANT       0.00000000
END griddata

BEGIN vertices
  1       0.00000000   10500.00000000
  2     500.00000000   10500.00000000
  3    1000.00000000   10500.00000000
  4    1500.00000000   10500.00000000
  5    2000.00000000   10500.00000000
  6    2500.00000000   10500.00000000
  7    3000.00000000   10500.00000000
  8    3500.00000000   10500.00000000
  9    4000.00000000   10500.00000000
  10    4500.00000000   10500.00000000
  11    5000.00000000   10500.00000000
  12    5500.00000000   10500.00000000
  13    6000.00000000   10500.00000000
  14    6500.00000000   10500.00000000
  15    7000.00000000   10500.00000000
  16    7500.00000000   10500.00000000
  17    8000.00000000   10500.00000000
  18    8500.00000000   10500.00000000
  19    9000.00000000   10500.00000000
  20    9500.00000000   10500.00000000
  21   10000.00000000   10500.00000000
  22       0.00000000   10000.00000000
  23     500.00000000   10000.00000000
  24    1000.00000000   10000.00000000
  25    1500.00000000   10000.00000000
  26    2000.00000000   10000.00000000
  27    2500.00000000   10000.00000000
  28    3000.00000000   10000.00000000
  29    3500.00000000   10000.00000000
  30    4000.00000000   10000.00000000
  31    4500.00000000   10000.00000000
  32    5000.00000000   10000.00000000
  33    5500.00000000   10000.00000000
  34    6000.00000000   10000.00000000
  35    6500.00000000   10000.00000000
  36    7000.00000000   10000.00000000
  37    7500.00000000   10000.00000000
  38    8000.00000000   10000.00000000
  39    8500.00000000   10000.00000000
  40    9000.00000000   10000.00000000
  41    9500.00000000   10000.00000000
  42   10000.00000000   10000.00000000
  43       0.00000000    9500.00000000
  44     500.00000000    9500.00000000
  45    1000.00000000    9500.00000000
  46    1500.00000000    9500.00000000
  47    2000.00000000    9500.00000000
  48    2500.00000000    9500.00000000
  49    3000.00000000    9500.00000000
  50    3500.00000000    9500.00000000
  51    4000.00000000    9500.00000000
  52    4500.00000000    9500.00000000
  53    5000.00000000    9500.00000000
  54    5500.00000000    9500.00000000
  55    6000.00000000    9500.00000000
  56    6500.00000000    9500.00000000
  57    7000.00000000    9500.00000000
  58    7500.00000000    9500.00000000
  59    8000.00000000    9500.00000000
  60    8500.00000000    9500.00000000
  61    9000.00000000    9500.00000000
  62    9500.00000000    9500.00000000
  63   10000.00000000    9500.00000000
  64       0.00000000    9000.00000000
  65     500.00000000    9000.00000000
  66    1000.00000000    9000.00000000
  67    1500.00000000    9000.00000000
  68    2000.00000000    9000.00000000
  69    2500.00000000    9000.00000000
  70    3000.00000000    9000.00000000
  71    3500.00000000    9000.00000000
  72    4000.00000000    9000.00000000
  73    4500.00000000    9000.00000000
  74    5000.00000000    9000.00000000
  75    5500.00000000    9000.00000000
  76    6000.00000000    9000.00000000
  77    6500.00000000    9000.00000000
  78    7000.00000000    9000.00000000
  79    7500.00000000    9000.00000000
  80    8000.00000000    9000.00000000
  81    8500.00000000    9000.00000000
  82    9000.00000000    9000.00000000
  83    9500.00000000    9000.00000000
  84   10000.00000000    9000.00000000
  85       0.00000000    8500.00000000
  86     500.00000000    8500.00000000
  87    1000.00000000    8500.00000000
  88    1500.00000000    8500.00000000
  89    2000.00000000    8500.00000000
  90    2500.00000000    8500.00000000
  91    3000.00000000    8500.00000000
  92    3500.00000000    8500.00000000
  93    4000.00000000    8500.00000000
  94    4500.00000000    8500.00000000
  95    5000.00000000    8500.00000000
  96    5500.00000000    8500.00000000
  97    6000.00000000    8500.00000000
  98    6500.00000000    8500.00000000
  99    7000.00000000    8500.00000000
  100    7500.00000000    8500.00000000
  101    8000.00000000    8500.00000000
  102    8500.00000000    8500.00000000
  103    9000.00000000    8500.00000000
  104    9500.00000000    8500.00000000
  105   10000.00000000    8500.00000000
  106       0.00000000    8000.00000000
  107     500.00000000    8000.00000000
  108    1000.00000000    8000.00000000
  109    1500.00000000    8000.00000000
  110    2000.00000000    8000.00000000
  111    2500.00000000    8000.00000000
  112    3000.00000000    8000.00000000
  113    3500.00000000    8000.00000000
  114    4000.00000000    8000.00000000
  115    4500.00000000    8000.00000000
  116    5000.00000000    8000.00000000
  117    5500.00000000    8000.00000000
  118    6000.00000000    8000.00000000
  119    6500.00000000    8000.00000000
  120    7000.00000000    8000.00000000
  121    7500.00000000    8000.00000000
  122    8000.00000000    8000.00000000
  123    8500.00000000    8000.00000000
  124    9000.00000000    8000.00000000
  125    9500.00000000    8000.00000000
  126   10000.00000000    8000.00000000
  127       0.00000000    7500.00000000
  128     500.00000000    7500.00000000
  129    1000.00000000    7500.00000000
  130    1500.00000000    7500.00000000
  131    2000.00000000    7500.00000000
  132    2500.00000000    7500.00000000
  133    3000.00000000    7500.00000000
  134    3500.00000000    7500.00000000
  135    4000.00000000    7500.00000000
  136    4500.00000000    7500.00000000
  137    5000.00000000    7500.00000000
  138    5500.00000000    7500.00000000
  139    6000.00000000    7500.00000000
  140    6500.00000000    7500.00000000
  141    7000.00000000    7500.00000000
  142    7500.00000000    7500.00000000
  143    8000.00000000    7500.00000000
  144    8500.00000000    7500.00000000
  145    9000.00000000    7500.00000000
  146    9500.00000000    7500.00000000
  147   10000.00000000    7500.00000000
  148       0.00000000    7000.00000000
  149     500.00000000    7000.00000000
  150    1000.00000000    7000.00000000
  151    1500.00000000    7000.00000000
  152    2000.00000000    7000.00000000
  153    2500.00000000    7000.00000000
  154    3000.00000000    7000.00000000
  155    3500.00000000    7000.00000000
  156    4000.00000000    7000.00000000
  157    4500.00000000    7000.00000000
  158    5000.00000000    7000.00000000
  159    5500.00000000    7000.00000000
  160    6000.00000000    7000.00000000
  161    6500.00000000    7000.00000000
  162    7000.00000000    7000.00000000
  163    7500.00000000    7000.00000000
  164    8000.00000000    7000.00000000
  165    8500.00000000    7000.00000000
  166    9000.00000000    7000.00000000
  167    9500.00000000    7000.00000000
  168   10000.00000000    7000.00000000
  169       0.00000000    6500.00000000
  170     500.00000000    6500.00000000
  171    1000.00000000    6500.00000000
  172    1500.00000000    6500.00000000
  173    2000.00000000    6500.00000000
  174    2500.00000000    6500.00000000
  175    3000.00000000    6500.00000000
  176    3500.00000000    6500.00000000
  177    4000.00000000    6500.00000000
  178    4500.00000000    6500.00000000
  179    5000.00000000    6500.00000000
  180    5500.00000000    6500.00000000
  181    6000.00000000    6500.00000000
  182    6500.00000000    6500.00000000
  183    7000.00000000    6500.00000000
  184    7500.00000000    6500.00000000
  185    8000.00000000    6500.00000000
  186    8500.00000000    6500.00000000
  187    9000.00000000    6500.00000000
  188    9500.00000000    6500.00000000
  189   10000.00000000    6500.00000000
  190       0.00000000    6000.00000000
  191     500.00000000    6000.00000000
  192    1000.00000000    6000.00000000
  193    1500.00000000    6000.00000000
  194    2000.00000000    6000.00000000
  195    2500.00000000    6000.00000000
  196    3000.00000000    6000.00000000
  197    3500.00000000    6000.00000000
  198    4000.00000000    6000.00000000
  199    4500.00000000    6000.00000000
  200    5000.00000000    6000.00000000
  201    5500.00000000    6000.00000000
  202    6000.00000000    6000.00000000
  203    6500.00000000    6000.00000000
  204    7000.00000000    6000.00000000
  205    7500.00000000    6000.00000000
  206    8000.00000000    6000.00000000
  207    8500.00000000    6000.00000000
  208    9000.00000000    6000.00000000
  209    9500.00000000    6000.00000000
  210   10000.00000000    6000.00000000
  211       0.00000000    5500.00000000
  212     500.00000000    5500.00000000
  213    1000.00000000    5500.00000000
  214    1500.00000000    5500.00000000
  215    2000.00000000    5500.00000000
  216    2500.00000000    5500.00000000
  217    3000.00000000    5500.00000000
  218    3500.00000000    5500.00000000
  219    4000.00000000    5500.00000000
  220    4500.00000000    5500.00000000
  221    5000.00000000    5500.00000000
  222    5500.00000000    5500.00000000
  223    6000.00000000    5500.00000000
  224    6500.00000000    5500.00000000
  225    7000.00000000    5500.00000000
  226    7500.00000000    5500.00000000
  227    8000.00000000    5500.00000000
  228    8500.00000000    5500.00000000
  229    9000.00000000    5500.00000000
  230    9500.00000000    5500.00000000
  231   10000.00000000    5500.00000000
  232       0.00000000    5000.00000000
  233     500.00000000    5000.00000000
  234    1000.00000000    5000.00000000
  235    1500.00000000    5000.00000000
  236    2000.00000000    5000.00000000
  237    2500.00000000    5000.00000000
  238    3000.00000000    5000.00000000
  239    3500.00000000    5000.00000000
  240    4000.00000000    5000.00000000
  241    4500.00000000    5000.00000000
  242    5000.00000000    5000.00000000
  243    5500.00000000    5000.00000000
  244    6000.00000000    5000.00000000
  245    6500.00000000    5000.00000000
  246    7000.00000000    5000.00000000
  247    7500.00000000    5000.00000000
  248    8000.00000000    5000.00000000
  249    8500.00000000    5000.00000000
  250    9000.00000000    5000.00000000
  251    9500.00000000    5000.00000000
  252   10000.00000000    5000.00000000
  253       0.00000000    4500.00000000
  254     500.00000000    4500.00000000
  255    1000.00000000    4500.00000000
  256    1500.00000000    4500.00000000
  257    2000.00000000    4500.00000000
  258    2500.00000000    4500.00000000
  259    3000.00000000    4500.00000000
  260    3500.00000000    4500.00000000
  261    4000.00000000    4500.00000000
  262    4500.00000000    4500.00000000
  263    5000.00000000    4500.00000000
  264    5500.00000000    4500.00000000
  265    6000.00000000    4500.00000000
  266    6500.00000000    4500.00000000
  267    7000.00000000    4500.00000000
  268    7500.00000000    4500.00000000
  269    8000.00000000    4500.00000000
  270    8500.00000000    4500.00000000
  271    9000.00000000    4500.00000000
  272    9500.00000000    4500.00000000
  273   10000.00000000    4500.00000000
  274       0.00000000    4000.00000000
  275     500.00000000    4000.00000000
  276    1000.00000000    4000.00000000
  277    1500.00000000    4000.00000000
  278    2000.00000000    4000.00000000
  279    2500.00000000    4000.00000000
  280    3000.00000000    4000.00000000
  281    3500.00000000    4000.00000000
  282    4000.00000000    4000.00000000
  283    4500.00000000    4000.00000000
  284    5000.00000000    4000.00000000
  285    5500.00000000    4000.00000000
  286    6000.00000000    4000.00000000
  287    6500.00000000    4000.00000000
  288    7000.00000000    4000.00000000
  289    7500.00000000    4000.00000000
  290    8000.00000000    4000.00000000
  291    8500.00000000    4000.00000000
  292    9000.00000000    4000.00000000
  293    9500.00000000    4000.00000000
  294   10000.00000000    4000.00000000
  295       0.00000000    3500.00000000
  296     500.00000000    3500.00000000
  297    1000.00000000    3500.00000000
  298    1500.00000000    3500.00000000
  299    2000.00000000    3500.00000000
  300    2500.00000000    3500.00000000
  301    3000.00000000    3500.00000000
  302    3500.00000000    3500.00000000
  303    4000.00000000    3500.00000000
  304    4500.00000000    3500.00000000
  305    5000.00000000    3500.00000000
  306    5500.00000000    3500.00000000
  307    6000.00000000    3500.00000000
  308    6500.00000000    3500.00000000
  309    7000.00000000    3500.00000000
  310    7500.00000000    3500.00000000
  311    8000.00000000    3500.00000000
  312    8500.00000000    3500.00000000
  313    9000.00000000    3500.00000000
  314    9500.00000000    3500.00000000
  315   10000.00000000    3500.00000000
  316       0.00000000    3000.00000000
  317     500.00000000    3000.00000000
  318    1000.00000000    3000.00000000
  319    1500.00000000    3000.00000000
  320    2000.00000000    3000.00000000
  321    2500.00000000    3000.00000000
  322    3000.00000000    3000.00000000
  323    3500.00000000    3000.00000000
  324    4000.00000000    3000.00000000
  325    4500.00000000    3000.00000000
  326    5000.00000000    3000.00000000
  327    5500.00000000    3000.00000000
  328    6000.00000000    3000.00000000
  329    6500.00000000    3000.00000000
  330    7000.00000000    3000.00000000
  331    7500.00000000    3000.00000000
  332    8000.00000000    3000.00000000
  333    8500.00000000    3000.00000000
  334    9000.00000000    3000.00000000
  335    9500.00000000    3000.00000000
  336   10000.00000000    3000.00000000
  337       0.00000000    2500.00000000
  338     500.00000000    2500.00000000
  339    1000.00000000    2500.00000000
  340    1500.00000000    2500.00000000
  341    2000.00000000    2500.00000000
  342    2500.00000000    2500.00000000
  343    3000.00000000    2500.00000000
  344    3500.00000000    2500.00000000
  345    4000.00000000    2500.00000000
  346    4500.00000000    2500.00000000
  347    5000.00000000    2500.00000000
  348    5500.00000000    2500.00000000
  349    6000.00000000    2500.00000000
  350    6500.00000000    2500.00000000
  351    7000.00000000    2500.00000000
  352    7500.00000000    2500.00000000
  353    8000.00000000    2500.00000000
  354    8500.00000000    2500.00000000
  355    9000.00000000    2500.00000000
  356    9500.00000000    2500.00000000
  357   10000.00000000    2500.00000000
  358       0.00000000    2000.00000000
  359     500.00000000    2000.00000000
  360    1000.00000000    2000.00000000
  361    1500.00000000    2000.00000000
  362    2000.00000000    2000.00000000
  363    2500.00000000    2000.00000000
  364    3000.00000000    2000.00000000
  365    3500.00000000    2000.00000000
  366    4000.00000000    2000.00000000
  367    4500.00000000    2000.00000000
  368    5000.00000000    2000.00000000
  369    5500.00000000    2000.00000000
  370    6000.00000000    2000.00000000
  371    6500.00000000    2000.00000000
  372    7000.00000000    2000.00000000
  373    7500.00000000    2000.00000000
  374    8000.00000000    2000.00000000
  375    8500.00000000    2000.00000000
  376    9000.00000000    2000.00000000
  377    9500.00000000    2000.00000000
  378   10000.00000000    2000.00000000
  379       0.00000000    1500.00000000
  380     500.00000000    1500.00000000
  381    1000.00000000    1500.00000000
  382    1500.00000000    1500.00000000
  383    2000.00000000    1500.00000000
  384    2500.00000000    1500.00000000
  385    3000.00000000    1500.00000000
  386    3500.00000000    1500.00000000
  387    4000.00000000    1500.00000000
  388    4500.00000000    1500.00000000
  389    5000.00000000    1500.00000000
  390    5500.00000000    1500.00000000
  391    6000.00000000    1500.00000000
  392    6500.00000000    1500.00000000
  393    7000.00000000    1500.00000000
  394    7500.00000000    1500.00000000
  395    8000.00000000    1500.00000000
  396    8500.00000000    1500.00000000
  397    9000.00000000    1500.00000000
  398    9500.00000000    1500.00000000
  399   10000.00000000    1500.00000000
  400       0.00000000    1000.00000000
  401     500.00000000    1000.00000000
  402    1000.00000000    1000.00000000
  403    1500.00000000    1000.00000000
  404    2000.00000000    1000.00000000
  405    2500.00000000    1000.00000000
  406    3000.00000000    1000.00000000
  407    3500.00000000    1000.00000000
  408    4000.00000000    1000.00000000
  409    4500.00000000    1000.00000000
  410    5000.00000000    1000.00000000
  411    5500.00000000    1000.00000000
  412    6000.00000000    1000.00000000
  413    6500.00000000    1000.00000000
  414    7000.00000000    1000.00000000
  415    7500.00000000    1000.00000000
  416    8000.00000000    1000.00000000
  417    8500.00000000    1000.00000000
  418    9000.00000000    1000.00000000
  419    9500.00000000    1000.00000000
  420   10000.00000000    1000.00000000
  421       0.00000000     500.00000000
  422     500.00000000     500.00000000
  423    1000.00000000     500.00000000
  424    1500.00000000     500.00000000
  425    2000.00000000     500.00000000
  426    2500.00000000     500.00000000
  427    3000.00000000     500.00000000
  428    3500.00000000     500.00000000
  429    4000.00000000     500.00000000
  430    4500.00000000     500.00000000
  431    5000.00000000     500.00000000
  432    5500.00000000     500.00000000
  433    6000.00000000     500.00000000
  434    6500.00000000     500.00000000
  435    7000.00000000     500.00000000
  436    7500.00000000     500.00000000
  437    8000.00000000     500.00000000
  438    8500.00000000     500.00000000
  439    9000.00000000     500.00000000
  440    9500.00000000     500.00000000
  441   10000.00000000     500.00000000
  442       0.00000000       0.00000000
  443     500.00000000       0.00000000
  444    1000.00000000       0.00000000
  445    1500.00000000       0.00000000
  446    2000.00000000       0.00000000
  447    2500.00000000       0.00000000
  448    3000.00000000       0.00000000
  449    3500.00000000       0.00000000
  450    4000.00000000       0.00000000
  451    4500.00000000       0.00000000
  452    5000.00000000       0.00000000
  453    5500.00000000       0.00000000
  454    6000.00000000       0.00000000
  455    6500.00000000       0.00000000
  456    7000.00000000       0.00000000
  457    7500.00000000       0.00000000
  458    8000.00000000       0.00000000
  459    8500.00000000       0.00000000
  460    9000.00000000       0.00000000
  461    9500.00000000       0.00000000
  462   10000.00000000       0.00000000
END vertices

BEGIN cell2d
  1     250.00000000   10250.00000000  4  1  2  23  22
  2     750.00000000   10250.00000000  4  2  3  24  23
  3    1250.00000000   10250.00000000  4  3  4  25  24
  4    1750.00000000   10250.00000000  4  4  5  26  25
  5    2250.00000000   10250.00000000  4  5  6  27  26
  6    2750.00000000   10250.00000000  4  6  7  28  27
  7    3250.00000000   10250.00000000  4  7  8  29  28
  8    3750.00000000   10250.00000000  4  8  9  30  29
  9    4250.00000000   10250.00000000  4  9  10  31  30
  10    4750.00000000   10250.00000000  4  10  11  32  31
  11    5250.00000000   10250.00000000  4  11  12  33  32
  12    5750.00000000   10250.00000000  4  12  13  34  33
  13    6250.00000000   10250.00000000  4  13  14  35  34
  14    6750.00000000   10250.00000000  4  14  15  36  35
  15    7250.00000000   10250.00000000  4  15  16  37  36
  16    7750.00000000   10250.00000000  4  16  17  38  37
  17    8250.00000000   10250.00000000  4  17  18  39  38
  18    8750.00000000   10250.00000000  4  18  19  40  39
  19    9250.00000000   10250.00000000  4  19  20  41  40
  20    9750.00000000   10250.00000000  4  20  21  42  41
  21     250.00000000    9750.00000000  4  22  23  44  43
  22     750.00000000    9750.00000000  4  23  24  45  44
  23    1250.00000000    9750.00000000  4  24  25  46  45
  24    1750.00000000    9750.00000000  4  25  26  47  46
  25    2250.00000000    9750.00000000  4  26  27  48  47
  26    2750.00000000    9750.00000000  4  27  28  49  48
  27    3250.00000000    9750.00000000  4  28  29  50  49
  28    3750.00000000    9750.00000000  4  29  30  51  50
  29    4250.00000000    9750.00000000  4  30  31  52  51
  30    4750.00000000    9750.00000000  4  31  32  53  52
  31    5250.00000000    9750.00000000  4  32  33  54  53
  32    5750.00000000    9750.00000000  4  33  34  55  54
  33    6250.00000000    9750.00000000  4  34  35  56  55
  34    6750.00000000    9750.00000000  4  35  36  57  56
  35    7250.00000000    9750.00000000  4  36  37  58  57
  36    7750.00000000    9750.00000000  4  37  38  59  58
  37    8250.00000000    9750.00000000  4  38  39  60  59
  38    8750.00000000    9750.00000000  4  39  40  61  60
  39    9250.00000000    9750.00000000  4  40  41  62  61
  40    9750.00000000    9750.00000000  4  41  42  63  62
  41     250.00000000    9250.00000000  4  43  44  65  64
  42     750.00000000    9250.00000000  4  44  45  66  65
  43    1250.00000000    9250.00000000  4  45  46  67  66
  44    1750.00000000    9250.00000000  4  46  47  68  67
  45    2250.00000000    9250.00000000  4  47  48  69  68
  46    2750.00000000    9250.00000000  4  48  49  70  69
  47    3250.00000000    9250.00000000  4  49  50  71  70
  48    3750.00000000    9250.00000000  4  50  51  72  71
  49    4250.00000000    9250.00000000  4  51  52  73  72
  50    4750.00000000    9250.00000000  4  52  53  74  73
  51    5250.00000000    9250.00000000  4  53  54  75  74
  52    5750.00000000    9250.00000000  4  54  55  76  75
  53    6250.00000000    9250.00000000  4  55  56  77  76
  54    6750.00000000    9250.00000000  4  56  57  78  77
  55    7250.00000000    9250.00000000  4  57  58  79  78
  56    7750.00000000    9250.00000000  4  58  59  80  79
  57    8250.00000000    9250.00000000  4  59  60  81  80
  58    8750.00000000    9250.00000000  4  60  61  82  81
  59    9250.00000000    9250.00000000  4  61  62  83  82
  60    9750.00000000    9250.00000000  4  62  63  84  83
  61     250.00000000    8750.00000000  4  64  65  86  85
  62     750.00000000    8750.00000000  4  65  66  87  86
  63    1250.00000000    8750.00000000  4  66  67  88  87
  64    1750.00000000    8750.00000000  4  67  68  89  88
  65    2250.00000000    8750.00000000  4  68  69  90  89
  66    2750.00000000    8750.00000000  4  69  70  91  90
  67    3250.00000000    8750.00000000  4  70  71  92  91
  68    3750.00000000    8750.00000000  4  71  72  93  92
  69    4250.00000000    8750.00000000  4  72  73  94  93
  70    4750.00000000    8750.00000000  4  73  74  95  94
  71    5250.00000000    8750.00000000  4  74  75  96  95
  72    5750.00000000    8750.00000000  4  75  76  97  96
  73    6250.00000000    8750.00000000  4  76  77  98  97
  74    6750.00000000    8750.00000000  4  77  78  99  98
  75    7250.00000000    8750.00000000  4  78  79  100  99
  76    7750.00000000    8750.00000000  4  79  80  101  100
  77    8250.00000000    8750.00000000  4  80  81  102  101
  78    8750.00000000    8750.00000000  4  81  82  103  102
  79    9250.00000000    8750.00000000  4  82  83  104  103
  80    9750.00000000    8750.00000000  4  83  84  105  104
  81     250.00000000    8250.00000000  4  85  86  107  106
  82     750.00000000    8250.00000000  4  86  87  108  107
  83    1250.00000000    8250.00000000  4  87  88  109  108
  84    1750.00000000    8250.00000000  4  88  89  110  109
  85    2250.00000000    8250.00000000  4  89  90  111  110
  86    2750.00000000    8250.00000000  4  90  91  112  111
  87    3250.00000000    8250.00000000  4  91  92  113  112
  88    3750.00000000    8250.00000000  4  92  93  114  113
  89    4250.00000000    8250.00000000  4  93  94  115  114
  90    4750.00000000    8250.00000000  4  94  95  116  115
  91    5250.00000000    8250.00000000  4  95  96  117  116
  92    5750.00000000    8250.00000000  4  96  97  118  117
  93    6250.00000000    8250.00000000  4  97  98  119  118
  94    6750.00000000    8250.00000000  4  98  99  120  119
  95    7250.00000000    8250.00000000  4  99  100  121  120
  96    7750.00000000    8250.00000000  4  100  101  122  121
  97    8250.00000000    8250.00000000  4  101  102  123  122
  98    8750.00000000    8250.00000000  4  102  103  124  123
  99    9250.00000000    8250.00000000  4  103  104  125  124
  100    9750.00000000    8250.00000000  4  104  105  126  125
  101     250.00000000    7750.00000000  4  106  107  128  127
  102     750.00000000    7750.00000000  4  107  108  129  128
  103    1250.00000000    7750.00000000  4  108  109  130  129
  104    1750.00000000    7750.00000000  4  109  110  131  130
  105    2250.00000000    7750.00000000  4  110  111  132  131
  106    2750.00000000    7750.00000000  4  111  112  133  132
  107    3250.00000000    7750.00000000  4  112  113  134  133
  108    3750.00000000    7750.00000000  4  113  114  135  134
  109    4250.00000000    7750.00000000  4  114  115  136  135
  110    4750.00000000    7750.00000000  4  115  116  137  136
  111    5250.00000000    7750.00000000  4  116  117  138  137
  112    5750.00000000    7750.00000000  4  117  118  139  138
  113    6250.00000000    7750.00000000  4  118  119  140  139
  114    6750.00000000    7750.00000000  4  119  120  141  140
  115    7250.00000000    7750.00000000  4  120  121  142  141
  116    7750.00000000    7750.00000000  4  121  122  143  142
  117    8250.00000000    7750.00000000  4  122  123  144  143
  118    8750.00000000    7750.00000000  4  123  124  145  144
  119    9250.00000000    7750.00000000  4  124  125  146  145
  120    9750.00000000    7750.00000000  4  125  126  147  146
  121     250.00000000    7250.00000000  4  127  128  149  148
  122     750.00000000    7250.00000000  4  128  129  150  149
  123    1250.00000000    7250.00000000  4  129  130  151  150
  124    1750.00000000    7250.00000000  4  130  131  152  151
  125    2250.00000000    7250.00000000  4  131  132  153  152
  126    2750.00000000    7250.00000000  4  132  133  154  153
  127    3250.00000000    7250.00000000  4  133  134  155  154
  128    3750.00000000    7250.00000000  4  134  135  156  155
  129    4250.00000000    7250.00000000  4  135  136  157  156
  130    4750.00000000    7250.00000000  4  136  137  158  157
  131    5250.00000000    7250.00000000  4  137  138  159  158
  132    5750.00000000    7250.00000000  4  138  139  160  159
  133    6250.00000000    7250.00000000  4  139  140  161  160
  134    6750.00000000    7250.00000000  4  140  141  162  161
  135    7250.00000000    7250.00000000  4  141  142  163  162
  136    7750.00000000    7250.00000000  4  142  143  164  163
  137    8250.00000000    7250.00000000  4  143  144  165  164
  138    8750.00000000    7250.00000000  4  144  145  166  165
  139    9250.00000000    7250.00000000  4  145  146  167  166
  140    9750.00000000    7250.00000000  4  146  147  168  167
  141     250.00000000    6750.00000000  4  148  149  170  169
  142     750.00000000    6750.00000000  4  149  150  171  170
  143    1250.00000000    6750.00000000  4  150  151  172  171
  144    1750.00000000    6750.00000000  4  151  152  173  172
  145    2250.00000000    6750.00000000  4  152  153  174  173
  146    2750.00000000    6750.00000000  4  153  154  175  174
  147    3250.00000000    6750.00000000  4  154  155  176  175
  148    3750.00000000    6750.00000000  4  155  156  177  176
  149    4250.00000000    6750.00000000  4  156  157  178  177
  150    4750.00000000    6750.00000000  4  157  158  179  178
  151    5250.00000000    6750.00000000  4  158  159  180  179
  152    5750.00000000    6750.00000000  4  159  160  181  180
  153    6250.00000000    6750.00000000  4  160  161  182  181
  154    6750.00000000    6750.00000000  4  161  162  183  182
  155    7250.00000000    6750.00000000  4  162  163  184  183
  156    7750.00000000    6750.00000000  4  163  164  185  184
  157    8250.00000000    6750.00000000  4  164  165  186  185
  158    8750.00000000    6750.00000000  4  165  166  187  186
  159    9250.00000000    6750.00000000  4  166  167  188  187
  160    9750.00000000    6750.00000000  4  167  168  189  188
  161     250.00000000    6250.00000000  4  169  170  191  190
  162     750.00000000    6250.00000000  4  170  171  192  191
  163    1250.00000000    6250.00000000  4  171  172  193  192
  164    1750.00000000    6250.00000000  4  172  173  194  193
  165    2250.00000000    6250.00000000  4  173  174  195  194
  166    2750.00000000    6250.00000000  4  174  175  196  195
  167    3250.00000000    6250.00000000  4  175  176  197  196
  168    3750.00000000    6250.00000000  4  176  177  198  197
  169    4250.00000000    6250.00000000  4  177  178  199  198
  170    4750.00000000    6250.00000000  4  178  179  200  199
  171    5250.00000000    6250.00000000  4  179  180  201  200
  172    5750.00000000    6250.00000000  4  180  181  202  201
  173    6250.00000000    6250.00000000  4  181  182  203  202
  174    6750.00000000    6250.00000000  4  182  183  204  203
  175    7250.00000000    6250.00000000  4  183  184  205  204
  176    7750.00000000    6250.00000000  4  184  185  206  205
  177    8250.00000000    6250.00000000  4  185  186  207  206
  178    8750.00000000    6250.00000000  4  186  187  208  207
  179    9250.00000000    6250.00000000  4  187  188  209  208
  180    9750.00000000    6250.00000000  4  188  189  210  209
  181     250.00000000    5750.00000000  4  190  191  212  211
  182     750.00000000    5750.00000000  4  191  192  213  212
  183    1250.00000000    5750.00000000  4  192  193  214  213
  184    1750.00000000    5750.00000000  4  193  194  215  214