# File generated by Flopy version 3.9.3 on 08/07/2025 at 18:48:33.
BEGIN options
END options

BEGIN timing
  TDIS6  disv_model.tdis
END timing

BEGIN models
  gwf6  disv_model.nam  disv_model
END models

BEGIN exchanges
END exchanges

BEGIN solutiongroup  1
  ims6  disv_model.ims  disv_model
END solutiongroup  1

