# File generated by Flopy version 3.9.3 on 08/08/2025 at 09:11:36.
BEGIN options
END options

BEGIN timing
  TDIS6  mp7_mf6_demo.tdis
END timing

BEGIN models
  gwf6  mp7_mf6_demo.nam  mp7_mf6_demo
END models

BEGIN exchanges
END exchanges

BEGIN solutiongroup  1
  ims6  mp7_mf6_demo.ims  mp7_mf6_demo
END solutiongroup  1

