# File generated by Flopy version 3.9.3 on 08/08/2025 at 09:11:36.
BEGIN options
END options

BEGIN griddata
  icelltype  LAYERED
    CONSTANT  1
    CONSTANT  0
    CONSTANT  0
  k  LAYERED
    CONSTANT      50.00000000
    CONSTANT       0.01000000
    CONSTANT     200.00000000
  k33  LAYERED
    CONSTANT      10.00000000
    CONSTANT       0.01000000
    CONSTANT      20.00000000
END griddata

