# File generated by Flopy version 3.9.3 on 08/08/2025 at 18:39:11.
BEGIN options
  READASARRAYS
END options

BEGIN period  1
  recharge
    CONSTANT       0.00500000
END period  1

