# File generated by Flopy version 3.9.3 on 08/08/2025 at 09:11:36.
BEGIN options
  BUDGET  FILEOUT  mp7_mf6_demo.cbb
  HEAD  FILEOUT  mp7_mf6_demo.hds
END options

BEGIN period  1
  SAVE  HEAD  ALL
  SAVE  BUDGET  ALL
END period  1

