# File generated by Flopy version 3.9.3 on 08/08/2025 at 09:11:36.
BEGIN options
END options

BEGIN griddata
  strt
    CONSTANT     400.00000000
END griddata

