# File generated by Flopy version 3.9.3 on 08/08/2025 at 09:11:36.
BEGIN options
END options

BEGIN dimensions
  MAXBOUND  1
END dimensions

BEGIN period  1
  3 11 10 -1.50000000E+05
END period  1

