# LPF package for MODFLOW-2005 generated by Flopy 3.9.3
         0    -1E+30         0  
         0         0         0
         0         0         0
   1.000000E+00   1.000000E+00   1.000000E+00
         0         0         0
         0         0         0
INTERNAL               2  (20E15.6) -1 #layered_hk layer 1            
   2.563835E+01   1.866407E+01   2.764864E+01   4.283036E+01   1.779034E+01   1.779049E+01   4.405059E+01   2.935461E+01   1.581557E+01   2.623285E+01   1.586354E+01   1.584521E+01   2.257207E+01   7.683630E+00   8.442457E+00   1.509840E+01   1.205304E+01   2.340281E+01   1.270150E+01   9.870795E+00
   4.161900E+01   1.786501E+01   2.068681E+01   9.809567E+00   1.523417E+01   2.114056E+01   1.124851E+01   2.413303E+01   1.481163E+01   1.728580E+01   1.480373E+01   5.049485E+01   1.986548E+01   1.178558E+01   3.017473E+01   1.086243E+01   2.220159E+01   7.507460E+00   1.029480E+01   2.206876E+01
   2.893250E+01   2.178924E+01   1.887632E+01   1.720466E+01   9.549333E+00   1.395461E+01   1.588560E+01   3.392979E+01   2.374902E+01   8.283058E+00   2.351819E+01   1.649721E+01   1.425733E+01   2.715525E+01   3.348950E+01   3.186067E+01   1.314608E+01   1.713505E+01   2.360277E+01   3.257369E+01
   1.573905E+01   1.822698E+01   1.150250E+01   1.099707E+01   3.002394E+01   3.940341E+01   1.929271E+01   3.303273E+01   2.396394E+01   1.448585E+01   2.396106E+01   4.315294E+01   1.964493E+01   4.373086E+01   5.397089E+00   3.016504E+01   2.088969E+01   1.722271E+01   2.093898E+01   7.403463E+00
   1.791962E+01   2.390980E+01   4.187460E+01   1.543437E+01   1.334959E+01   1.556234E+01   3.160873E+01   2.357314E+01   1.534596E+01   2.585143E+01   2.099472E+01   3.246150E+01   1.407930E+01   1.697771E+01   1.643936E+01   9.621256E+00   2.319165E+01   2.278859E+01   2.005120E+01   1.778648E+01
   9.855670E+00   1.620646E+01   1.685041E+01   1.339114E+01   1.845046E+01   2.447758E+01   5.135823E+01   2.182424E+01   2.274869E+01   1.926923E+01   7.662564E+00   1.973661E+01   2.061146E+01   6.853560E+01   1.816600E+01   2.325467E+01   1.965588E+01   1.114948E+01   3.541529E+01   2.912797E+01
   2.970301E+01   1.269285E+01   4.033136E+01   9.922518E+00   2.682035E+01   5.979728E+01   1.218815E+01   1.506815E+01   2.102176E+01   1.554897E+01   9.211020E+00   2.069752E+01   1.175855E+01   2.534366E+01   1.262931E+01   4.341042E+01   1.351913E+01   1.702532E+01   3.003883E+01   1.080815E+01
   1.120450E+02   1.922394E+02   4.476509E+01   1.096712E+02   1.138762E+02   1.478328E+02   5.387652E+01   5.167334E+01   1.298190E+02   1.160084E+02   1.133428E+02   1.189133E+02   7.117616E+01   1.123138E+02   1.157817E+02   6.996496E+01   2.541837E+02   1.267335E+02   5.512032E+01   1.388573E+02
   1.228515E+01   2.964444E+01   3.569569E+01   1.326848E+01   3.237609E+01   2.458466E+01   3.016741E+01   5.163134E+01   1.769069E+01   1.372013E+01   1.281960E+01   1.330084E+01   1.924366E+01   2.371976E+01   2.296744E+01   3.024479E+01   2.013044E+01   4.136766E+01   1.752106E+01   7.793046E+01
   2.734588E+01   1.302869E+01   1.170816E+01   2.545643E+01   1.788569E+01   2.858072E+01   2.533916E+01   1.928481E+01   1.309637E+01   9.377458E+00   1.599818E+01   3.068984E+01   2.225973E+01   1.072806E+01   2.180900E+01   2.424938E+01   1.285591E+01   2.159787E+01   2.059064E+01   1.129372E+01
   2.391787E+01   2.647298E+01   3.437254E+01   3.387351E+01   1.004322E+01   1.251365E+01   2.587429E+01   2.585814E+01   2.587445E+01   1.372903E+02   2.660708E+01   3.528702E+01   3.222470E+01   2.769987E+01   1.708324E+01   2.923062E+01   1.358980E+01   1.776665E+01   1.569042E+01   2.083573E+01
   6.362851E+01   7.862461E+00   2.818704E+01   8.929625E+00   1.579615E+01   3.447408E+01   2.065324E+01   1.166811E+01   1.398633E+01   2.809330E+01   1.388139E+01   2.228606E+01   2.046095E+01   1.443899E+01   5.842269E+01   2.745894E+01   7.265673E+00   2.195422E+01   1.436564E+01   3.062905E+01
   1.345663E+01   1.888493E+01   2.574463E+01   3.083375E+01   1.097461E+01   1.691975E+01   1.577237E+01   1.442651E+01   4.834967E+01   2.448898E+01   1.064713E+01   3.164763E+01   5.778969E+01   3.351405E+01   9.356276E+00   1.569929E+01   3.768220E+01   1.403982E+01   2.496917E+01   2.946047E+01
   1.258200E+01   1.941352E+01   3.955467E+00   1.198359E+01   1.762729E+01   1.071710E+01   4.523802E+01   9.783151E+00   1.605002E+01   2.135109E+01   4.111483E+01   9.755207E+00   3.577732E+01   2.010259E+01   1.224329E+01   2.519849E+01   2.209303E+01   1.481476E+01   2.071034E+01   1.649530E+01
   2.116801E+01   2.784902E+01   4.420070E+01   1.077065E+01   5.810484E+01   7.535976E+00   1.853832E+01   2.683994E+01   2.301689E+01   1.464915E+01   1.802341E+01   1.563062E+01   1.489536E+01   3.058572E+01   2.390864E+01   1.414382E+01   3.135997E+01   2.332165E+01   3.002899E+01   2.740010E+01
INTERNAL               2  (20E15.6) -1 #layered_hk layer 1            
   2.563835E+00   1.866407E+00   2.764864E+00   4.283036E+00   1.779034E+00   1.779049E+00   4.405059E+00   2.935461E+00   1.581557E+00   2.623285E+00   1.586354E+00   1.584521E+00   2.257207E+00   7.683631E-01   8.442457E-01   1.509840E+00   1.205304E+00   2.340281E+00   1.270150E+00   9.870796E-01
   4.161900E+00   1.786501E+00   2.068681E+00   9.809567E-01   1.523417E+00   2.114056E+00   1.124851E+00   2.413303E+00   1.481163E+00   1.728580E+00   1.480373E+00   5.049485E+00   1.986548E+00   1.178558E+00   3.017473E+00   1.086244E+00   2.220159E+00   7.507460E-01   1.029480E+00   2.206876E+00
   2.893250E+00   2.178924E+00   1.887632E+00   1.720466E+00   9.549333E-01   1.395461E+00   1.588560E+00   3.392979E+00   2.374902E+00   8.283058E-01   2.351819E+00   1.649721E+00   1.425733E+00   2.715525E+00   3.348950E+00   3.186067E+00   1.314608E+00   1.713505E+00   2.360277E+00   3.257369E+00
   1.573905E+00   1.822698E+00   1.150250E+00   1.099707E+00   3.002394E+00   3.940341E+00   1.929271E+00   3.303273E+00   2.396394E+00   1.448585E+00   2.396106E+00   4.315294E+00   1.964493E+00   4.373086E+00   5.397089E-01   3.016504E+00   2.088969E+00   1.722271E+00   2.093899E+00   7.403463E-01
   1.791962E+00   2.390980E+00   4.187459E+00   1.543437E+00   1.334959E+00   1.556234E+00   3.160873E+00   2.357314E+00   1.534596E+00   2.585143E+00   2.099472E+00   3.246150E+00   1.407930E+00   1.697771E+00   1.643936E+00   9.621256E-01   2.319165E+00   2.278859E+00   2.005120E+00   1.778648E+00
   9.855670E-01   1.620646E+00   1.685041E+00   1.339115E+00   1.845046E+00   2.447758E+00   5.135823E+00   2.182424E+00   2.274869E+00   1.926923E+00   7.662565E-01   1.973661E+00   2.061146E+00   6.853560E+00   1.816600E+00   2.325467E+00   1.965588E+00   1.114949E+00   3.541529E+00   2.912797E+00
   2.970301E+00   1.269285E+00   4.033136E+00   9.922518E-01   2.682035E+00   5.979728E+00   1.218815E+00   1.506815E+00   2.102176E+00   1.554897E+00   9.211020E-01   2.069752E+00   1.175855E+00   2.534366E+00   1.262931E+00   4.341042E+00   1.351913E+00   1.702532E+00   3.003883E+00   1.080815E+00
   1.120450E+01   1.922394E+01   4.476509E+00   1.096712E+01   1.138762E+01   1.478328E+01   5.387652E+00   5.167334E+00   1.298190E+01   1.160084E+01   1.133428E+01   1.189133E+01   7.117616E+00   1.123138E+01   1.157817E+01   6.996496E+00   2.541838E+01   1.267335E+01   5.512032E+00   1.388573E+01
   1.228515E+00   2.964444E+00   3.569569E+00   1.326848E+00   3.237610E+00   2.458466E+00   3.016742E+00   5.163134E+00   1.769069E+00   1.372013E+00   1.281960E+00   1.330084E+00   1.924366E+00   2.371976E+00   2.296744E+00   3.024479E+00   2.013044E+00   4.136766E+00   1.752107E+00   7.793046E+00
   2.734588E+00   1.302869E+00   1.170816E+00   2.545643E+00   1.788569E+00   2.858073E+00   2.533916E+00   1.928481E+00   1.309637E+00   9.377457E-01   1.599818E+00   3.068984E+00   2.225973E+00   1.072806E+00   2.180900E+00   2.424938E+00   1.285591E+00   2.159787E+00   2.059064E+00   1.129372E+00
   2.391787E+00   2.647298E+00   3.437254E+00   3.387351E+00   1.004322E+00   1.251365E+00   2.587429E+00   2.585814E+00   2.587445E+00   1.372903E+01   2.660708E+00   3.528702E+00   3.222470E+00   2.769988E+00   1.708324E+00   2.923062E+00   1.358980E+00   1.776665E+00   1.569042E+00   2.083573E+00
   6.362851E+00   7.862461E-01   2.818704E+00   8.929625E-01   1.579615E+00   3.447407E+00   2.065324E+00   1.166811E+00   1.398633E+00   2.809330E+00   1.388139E+00   2.228606E+00   2.046095E+00   1.443899E+00   5.842269E+00   2.745894E+00   7.265673E-01   2.195422E+00   1.436564E+00   3.062905E+00
   1.345663E+00   1.888493E+00   2.574463E+00   3.083375E+00   1.097461E+00   1.691975E+00   1.577237E+00   1.442651E+00   4.834967E+00   2.448898E+00   1.064713E+00   3.164763E+00   5.778969E+00   3.351405E+00   9.356276E-01   1.569929E+00   3.768220E+00   1.403982E+00   2.496917E+00   2.946047E+00
   1.258200E+00   1.941352E+00   3.955467E-01   1.198359E+00   1.762729E+00   1.071710E+00   4.523802E+00   9.783151E-01   1.605002E+00   2.135109E+00   4.111483E+00   9.755207E-01   3.577732E+00   2.010259E+00   1.224329E+00   2.519849E+00   2.209303E+00   1.481476E+00   2.071034E+00   1.649530E+00
   2.116801E+00   2.784902E+00   4.420070E+00   1.077065E+00   5.810484E+00   7.535976E-01   1.853832E+00   2.683994E+00   2.301689E+00   1.464915E+00   1.802341E+00   1.563062E+00   1.489536E+00   3.058572E+00   2.390864E+00   1.414382E+00   3.135997E+00   2.332165E+00   3.002899E+00   2.740010E+00
INTERNAL               2  (20E15.6) -1 #layered_hk layer 2            
   1.137349E+01   6.349299E+00   8.275783E+00   7.653226E+00   1.535777E+01   8.134222E+00   1.282863E+01   2.732179E+01   1.880299E+01   8.028339E+00   8.409534E+00   1.255658E+01   4.341647E+00   6.498312E+00   1.279482E+01   2.819207E+01   2.631537E+01   7.340183E+00   5.924911E+00   6.409468E+00
   1.007045E+01   9.227335E+00   3.050117E+01   8.190928E+00   1.027596E+01   1.555957E+01   9.474413E+00   1.320227E+01   1.218296E+01   1.519836E+01   4.946331E+00   1.497691E+01   9.331944E+00   1.098109E+01   8.242107E+00   6.876685E+01   3.593226E+00   2.013065E+01   7.121238E+00   2.147904E+01
   1.841551E+01   1.661124E+01   1.512955E+01   3.105412E+01   7.426890E+00   7.477888E+00   7.204011E+00   1.588157E+01   5.222647E+00   1.657952E+01   8.656972E+00   5.863394E+00   5.834477E+00   6.714022E+00   4.756746E+00   3.879385E+01   1.530961E+01   1.615003E+01   7.310730E+00   1.166451E+01
   1.002606E+01   1.413072E+01   1.249110E+01   1.046174E+01   3.948807E+00   9.200843E+00   1.057004E+01   7.065323E+00   8.740762E+00   5.222481E+00   8.516729E+00   1.287799E+01   2.842062E+01   6.026886E+00   9.880845E+00   1.854987E+01   9.547716E+00   8.941640E+00   1.516562E+01   1.627524E+01
   1.084815E+01   9.443617E+00   1.809832E+01   1.094060E+01   2.134475E+01   4.417479E+00   2.437531E+01   7.342807E+00   5.808867E+00   9.778718E+00   5.588628E+00   1.329057E+01   7.934840E+00   1.154512E+01   6.134421E+00   2.684231E+01   1.049660E+01   9.101078E+00   2.216216E+01   1.340316E+01
   1.107204E+01   3.952407E+00   1.208155E+01   1.855344E+01   7.082304E+00   9.055820E+00   2.202769E+00   5.364333E+00   3.527415E+00   1.053440E+01   9.276352E+00   9.484671E+00   8.037419E+00   1.664572E+01   5.398837E+00   2.890848E+01   1.347424E+01   9.142088E+00   9.556175E+00   6.619668E+00
   8.457895E+00   1.432148E+01   3.643169E+00   9.240265E+00   7.466882E+00   9.654574E+00   2.426842E+01   7.998631E+00   2.105783E+01   1.733521E+01   1.015060E+01   1.044515E+01   1.094850E+01   6.619363E+00   1.368095E+01   2.208389E+01   1.018032E+01   3.335437E+00   6.494422E+00   1.306759E+01
   5.702208E+00   1.181734E+01   7.759903E+00   1.640621E+01   1.875681E+01   1.092876E+01   9.925939E+00   1.020424E+01   9.893349E+00   1.814533E+01   3.498843E+01   5.133843E+00   5.980169E+00   1.977008E+01   5.648826E+00   1.510740E+01   2.879699E+01   8.718504E+00   8.824327E+00   7.753698E+00
   1.337324E+01   5.674798E+00   2.428308E+01   1.457209E+01   9.744324E+00   7.589246E+00   1.055620E+01   1.685369E+01   3.701438E+01   2.126302E+01   1.659392E+01   1.021756E+01   1.851974E+01   8.409649E+00   1.180504E+01   5.386847E+01   1.354438E+01   7.172388E+00   4.646890E+00   1.284987E+01
   1.069636E+01   1.592006E+01   1.029368E+01   8.271313E+00   1.693803E+01   1.645685E+01   3.483329E+00   4.678733E+00   1.067071E+01   9.679073E+00   9.107449E+00   1.509783E+01   2.739428E+01   5.970681E+00   9.668046E+00   2.962168E+01   1.108100E+01   5.423629E+00   1.263284E+01   1.018520E+01
   2.771669E+01   1.212162E+01   7.045022E+00   4.730391E+00   9.522075E+00   6.874097E+00   8.090979E+00   1.188660E+01   1.124692E+01   1.101806E+01   2.005977E+01   1.226271E+01   3.883513E+01   1.084010E+01   8.159125E+00   1.419161E+01   5.183079E+00   1.573665E+01   1.383292E+01   9.561415E+00
   8.938749E+00   6.415922E+00   9.201820E+00   1.063691E+01   3.646406E+00   1.437056E+01   3.629022E+00   1.183515E+01   9.778987E+00   1.157239E+01   7.230699E+00   2.332030E+01   1.431963E+01   1.373975E+01   9.144177E+00   2.889216E+01   1.557137E+01   1.917736E+01   2.013929E+01   9.770733E+00
   1.028756E+01   1.180030E+01   8.773139E+00   7.014312E+00   1.086791E+01   1.267012E+01   1.299334E+01   9.629365E+00   7.196290E+00   1.283554E+01   1.222012E+01   6.315845E+00   1.607073E+01   1.462160E+01   9.792841E+00   1.602382E+01   5.449458E+00   1.242627E+01   7.689554E+00   8.719238E+00
   5.686760E+00   1.509276E+01   3.883321E+00   9.764468E+00   1.194345E+01   1.357939E+01   1.272682E+01   5.434783E+00   8.136326E+00   6.891705E+00   5.565222E+00   4.147256E+00   1.270346E+01   1.803617E+01   7.514821E+00   4.401307E+01   1.307748E+01   6.362902E+00   9.443666E+00   1.020995E+01
   1.447125E+01   1.056390E+01   4.183408E+00   2.497891E+01   1.214709E+01   6.082854E+00   4.636252E+00   6.467797E+00   8.392132E+00   7.120620E+00   7.884796E+00   6.006515E+00   1.320138E+01   5.920305E+00   1.309230E+01   4.212341E+01   4.714963E+00   7.896245E+00   1.575602E+01   1.082111E+01
INTERNAL               2  (20E15.6) -1 #layered_hk layer 2            
   1.137349E+00   6.349299E-01   8.275782E-01   7.653226E-01   1.535777E+00   8.134222E-01   1.282863E+00   2.732179E+00   1.880299E+00   8.028340E-01   8.409535E-01   1.255658E+00   4.341647E-01   6.498312E-01   1.279482E+00   2.819207E+00   2.631537E+00   7.340183E-01   5.924911E-01   6.409468E-01
   1.007045E+00   9.227335E-01   3.050117E+00   8.190929E-01   1.027596E+00   1.555957E+00   9.474413E-01   1.320227E+00   1.218296E+00   1.519836E+00   4.946330E-01   1.497691E+00   9.331943E-01   1.098109E+00   8.242108E-01   6.876685E+00   3.593226E-01   2.013065E+00   7.121238E-01   2.147904E+00
   1.841551E+00   1.661124E+00   1.512956E+00   3.105412E+00   7.426891E-01   7.477888E-01   7.204012E-01   1.588157E+00   5.222647E-01   1.657953E+00   8.656972E-01   5.863394E-01   5.834477E-01   6.714022E-01   4.756746E-01   3.879385E+00   1.530961E+00   1.615003E+00   7.310730E-01   1.166451E+00
   1.002606E+00   1.413072E+00   1.249110E+00   1.046174E+00   3.948807E-01   9.200843E-01   1.057004E+00   7.065324E-01   8.740762E-01   5.222481E-01   8.516729E-01   1.287799E+00   2.842062E+00   6.026886E-01   9.880845E-01   1.854987E+00   9.547716E-01   8.941640E-01   1.516562E+00   1.627524E+00
   1.084815E+00   9.443617E-01   1.809832E+00   1.094060E+00   2.134475E+00   4.417479E-01   2.437531E+00   7.342808E-01   5.808867E-01   9.778718E-01   5.588629E-01   1.329057E+00   7.934840E-01   1.154512E+00   6.134421E-01   2.684231E+00   1.049660E+00   9.101078E-01   2.216216E+00   1.340316E+00
   1.107204E+00   3.952407E-01   1.208155E+00   1.855344E+00   7.082304E-01   9.055821E-01   2.202769E-01   5.364333E-01   3.527415E-01   1.053440E+00   9.276352E-01   9.484671E-01   8.037419E-01   1.664572E+00   5.398837E-01   2.890848E+00   1.347424E+00   9.142088E-01   9.556175E-01   6.619669E-01
   8.457896E-01   1.432148E+00   3.643169E-01   9.240265E-01   7.466882E-01   9.654574E-01   2.426841E+00   7.998632E-01   2.105783E+00   1.733521E+00   1.015060E+00   1.044515E+00   1.094850E+00   6.619363E-01   1.368095E+00   2.208389E+00   1.018032E+00   3.335437E-01   6.494423E-01   1.306759E+00
   5.702208E-01   1.181734E+00   7.759904E-01   1.640621E+00   1.875681E+00   1.092876E+00   9.925939E-01   1.020424E+00   9.893349E-01   1.814533E+00   3.498843E+00   5.133843E-01   5.980169E-01   1.977008E+00   5.648826E-01   1.510740E+00   2.879699E+00   8.718504E-01   8.824328E-01   7.753698E-01
   1.337324E+00   5.674798E-01   2.428308E+00   1.457209E+00   9.744324E-01   7.589247E-01   1.055620E+00   1.685369E+00   3.701438E+00   2.126302E+00   1.659392E+00   1.021756E+00   1.851974E+00   8.409649E-01   1.180504E+00   5.386847E+00   1.354438E+00   7.172388E-01   4.646890E-01   1.284987E+00
   1.069636E+00   1.592006E+00   1.029368E+00   8.271313E-01   1.693803E+00   1.645685E+00   3.483329E-01   4.678733E-01   1.067071E+00   9.679074E-01   9.107448E-01   1.509784E+00   2.739428E+00   5.970681E-01   9.668046E-01   2.962168E+00   1.108100E+00   5.423629E-01   1.263284E+00   1.018520E+00
   2.771669E+00   1.212162E+00   7.045023E-01   4.730391E-01   9.522075E-01   6.874097E-01   8.090979E-01   1.188660E+00   1.124692E+00   1.101806E+00   2.005977E+00   1.226271E+00   3.883513E+00   1.084010E+00   8.159125E-01   1.419161E+00   5.183079E-01   1.573665E+00   1.383292E+00   9.561415E-01
   8.938749E-01   6.415922E-01   9.201820E-01   1.063691E+00   3.646407E-01   1.437056E+00   3.629022E-01   1.183515E+00   9.778987E-01   1.157239E+00   7.230698E-01   2.332030E+00   1.431963E+00   1.373975E+00   9.144177E-01   2.889216E+00   1.557137E+00   1.917736E+00   2.013929E+00   9.770733E-01
   1.028756E+00   1.180030E+00   8.773139E-01   7.014312E-01   1.086791E+00   1.267012E+00   1.299334E+00   9.629365E-01   7.196290E-01   1.283554E+00   1.222012E+00   6.315846E-01   1.607073E+00   1.462160E+00   9.792841E-01   1.602382E+00   5.449458E-01   1.242627E+00   7.689554E-01   8.719239E-01
   5.686761E-01   1.509276E+00   3.883321E-01   9.764468E-01   1.194345E+00   1.357939E+00   1.272682E+00   5.434783E-01   8.136326E-01   6.891705E-01   5.565222E-01   4.147256E-01   1.270346E+00   1.803617E+00   7.514821E-01   4.401308E+00   1.307748E+00   6.362902E-01   9.443666E-01   1.020995E+00
   1.447125E+00   1.056390E+00   4.183408E-01   2.497891E+00   1.214709E+00   6.082854E-01   4.636252E-01   6.467797E-01   8.392132E-01   7.120620E-01   7.884796E-01   6.006515E-01   1.320138E+00   5.920305E-01   1.309230E+00   4.212341E+00   4.714963E-01   7.896245E-01   1.575602E+00   1.082111E+00
INTERNAL               2  (20E15.6) -1 #layered_hk layer 3            
   3.435390E+00   9.656358E+00   9.323218E+00   2.241130E+00   2.399754E+00   2.121032E+00   1.266484E+01   5.223835E+00   4.870891E+00   6.600687E+00   3.088656E+00   4.568922E+00   2.766916E+00   6.767697E+00   3.106860E+00   5.988649E+00   8.497254E+00   4.715532E+00   7.555459E+00   2.730627E+00
   2.757118E+00   5.581033E+00   4.495057E+00   2.468692E+00   3.927281E+00   9.118625E+00   3.513232E+00   5.063351E+00   4.111853E+00   5.506931E+00   5.954120E+00   6.719624E+00   6.485980E+00   7.553788E+00   6.187553E+00   5.513822E+00   3.866624E+00   1.075293E+00   4.103574E+00   3.359319E+00
   3.517805E+00   2.097490E+00   7.277898E+00   1.968873E+00   6.163800E+00   4.444961E+00   6.205844E+00   7.725943E+00   1.365013E+01   9.927646E+00   8.488708E+00   1.029962E+01   5.123560E+00   5.231001E+00   3.932634E+00   5.811097E+00   8.722692E+00   4.951945E+00   4.997982E+00   3.633414E+00
   1.109816E+01   5.046750E+00   6.620310E+00   4.527634E+00   6.303101E+00   2.013533E+00   5.343604E+00   3.672594E+00   9.616955E+00   7.369551E+00   4.346421E+00   3.481520E+00   3.119844E+00   6.621229E+00   3.536161E+00   1.170853E+01   2.955230E+00   3.592550E+00   3.016171E+00   2.410894E+00
   6.078237E+00   3.334143E+00   8.919804E+00   5.080042E+00   1.936677E+00   3.244504E+00   4.859032E+00   9.252991E+00   3.829224E+00   4.226823E+00   2.296936E+00   9.195896E+00   1.617071E+00   5.584231E+00   4.863956E+00   5.754776E+00   6.744725E+00   8.356379E+00   5.017385E+00   2.080864E+00
   1.084879E+01   3.620997E+00   7.760967E+00   4.264167E+00   7.193061E+00   4.838705E+00   3.990481E+00   7.661464E+00   1.407193E+00   4.119353E+00   4.947589E+00   5.856482E+00   3.649281E+00   1.858179E+00   5.741843E+00   2.694509E+00   6.659905E+00   5.863113E+00   4.807024E+00   1.046498E+01
   8.789013E+00   2.906888E+00   1.981540E+00   9.737720E+00   1.533127E+01   3.380095E+00   5.647482E+00   3.017448E+00   3.492469E+00   2.132461E+01   6.064220E+00   5.100548E+00   5.276132E+00   2.630490E+00   5.932395E+00   1.249520E+01   1.032027E+01   3.839634E+00   3.171221E+00   6.924314E+00
   5.041038E+00   4.669464E+00   3.389257E+00   7.447309E+00   5.096702E+00   4.852060E+00   5.018755E+00   6.060732E+00   2.992408E+00   2.913884E+00   1.380205E+00   5.822543E+00   1.288001E+01   8.310855E+00   4.891837E+00   2.802887E+00   4.102574E+00   3.576473E+00   5.866925E+00   4.313060E+00
   6.129560E+00   4.002998E+00   2.494278E+00   1.155645E+01   2.507095E+00   2.640740E+00   3.391959E+00   3.716588E+00   7.294801E+00   5.988603E+00   3.907333E+00   6.343545E+00   1.505209E+01   6.006073E+00   5.566653E+00   7.117863E+00   3.181930E+00   2.023010E+01   1.067433E+01   3.757476E+00
   6.613086E+00   1.750764E+00   5.886077E+00   5.005243E+00   6.054614E+00   3.609181E+00   8.606730E+00   3.118965E+00   9.092443E+00   4.062242E+00   1.976305E+00   3.893432E+00   1.221053E+01   2.205104E+00   2.915477E+00   5.866040E+00   3.029950E+00   3.980036E+00   3.334145E+00   6.864830E+00
   4.390531E+00   9.097358E+00   2.204044E+00   1.021424E+01   7.342775E+00   5.450679E+00   6.053245E+00   3.877982E+00   3.072586E+00   1.174711E+01   4.655567E+00   2.754567E+00   6.169672E+00   5.555116E+00   7.435348E+00   3.904782E+00   3.149919E+00   2.848471E+00   2.887660E+00   6.948667E+00
   6.257020E+00   7.596266E+00   6.225157E+00   3.798974E+00   1.600955E+01   4.535223E+00   2.065312E+00   7.521788E+00   4.103200E+00   4.310986E+00   4.425798E+00   5.898844E+00   2.758079E+00   4.008214E+00   4.992819E+00   9.557434E+00   3.246131E+00   3.700344E+00   8.973948E+00   6.723532E+00
   5.417971E+00   3.440855E+00   8.410822E+00   4.892908E+00   5.181537E+00   5.197481E+00   5.230360E+00   7.578009E+00   4.284827E+00   1.556444E+00   4.171622E+00   4.838712E+00   5.263560E+00   3.485442E+00   2.535126E+00   6.462640E+00   7.235772E+00   2.153202E+00   4.269556E+00   3.354838E+00
   5.759271E+00   4.113322E+00   2.332653E+00   8.850160E+00   6.164620E+00   4.001934E+00   2.971060E+00   2.748378E+00   4.382069E+00   1.905904E+00   1.173412E+01   3.495924E+00   4.828672E+00   4.040555E+00   5.532620E+00   7.856616E+00   1.322440E+00   7.076907E+00   4.686108E+00   8.584385E+00
   6.107209E+00   2.294820E+00   2.702653E+00   9.107409E+00   7.527457E+00   4.348011E+00   6.947707E+00   3.676892E+00   8.182733E+00   4.343259E+00   3.378289E+00   5.430417E+00   4.420868E+00   6.417987E+00   4.012421E+00   4.754449E+00   1.749985E+01   8.013261E+00   4.313569E+00   5.454700E+00
INTERNAL               2  (20E15.6) -1 #layered_hk layer 3            
   3.435390E-01   9.656358E-01   9.323218E-01   2.241130E-01   2.399754E-01   2.121032E-01   1.266484E+00   5.223836E-01   4.870891E-01   6.600687E-01   3.088656E-01   4.568922E-01   2.766916E-01   6.767697E-01   3.106860E-01   5.988650E-01   8.497254E-01   4.715532E-01   7.555459E-01   2.730627E-01
   2.757119E-01   5.581033E-01   4.495057E-01   2.468692E-01   3.927281E-01   9.118625E-01   3.513232E-01   5.063351E-01   4.111853E-01   5.506931E-01   5.954120E-01   6.719624E-01   6.485980E-01   7.553788E-01   6.187553E-01   5.513822E-01   3.866624E-01   1.075293E-01   4.103574E-01   3.359319E-01
   3.517805E-01   2.097490E-01   7.277898E-01   1.968873E-01   6.163800E-01   4.444961E-01   6.205844E-01   7.725943E-01   1.365013E+00   9.927646E-01   8.488709E-01   1.029962E+00   5.123560E-01   5.231001E-01   3.932634E-01   5.811097E-01   8.722692E-01   4.951945E-01   4.997981E-01   3.633414E-01
   1.109816E+00   5.046750E-01   6.620311E-01   4.527634E-01   6.303101E-01   2.013533E-01   5.343604E-01   3.672594E-01   9.616955E-01   7.369551E-01   4.346421E-01   3.481520E-01   3.119844E-01   6.621229E-01   3.536161E-01   1.170853E+00   2.955230E-01   3.592550E-01   3.016171E-01   2.410894E-01
   6.078237E-01   3.334143E-01   8.919804E-01   5.080042E-01   1.936677E-01   3.244504E-01   4.859032E-01   9.252991E-01   3.829224E-01   4.226823E-01   2.296936E-01   9.195896E-01   1.617071E-01   5.584232E-01   4.863956E-01   5.754777E-01   6.744725E-01   8.356379E-01   5.017385E-01   2.080864E-01
   1.084879E+00   3.620997E-01   7.760968E-01   4.264167E-01   7.193062E-01   4.838705E-01   3.990481E-01   7.661464E-01   1.407193E-01   4.119353E-01   4.947589E-01   5.856482E-01   3.649281E-01   1.858179E-01   5.741844E-01   2.694509E-01   6.659905E-01   5.863113E-01   4.807024E-01   1.046498E+00
   8.789013E-01   2.906888E-01   1.981540E-01   9.737720E-01   1.533127E+00   3.380094E-01   5.647482E-01   3.017448E-01   3.492469E-01   2.132461E+00   6.064220E-01   5.100548E-01   5.276132E-01   2.630490E-01   5.932395E-01   1.249520E+00   1.032027E+00   3.839634E-01   3.171221E-01   6.924314E-01
   5.041038E-01   4.669464E-01   3.389257E-01   7.447309E-01   5.096702E-01   4.852060E-01   5.018755E-01   6.060733E-01   2.992408E-01   2.913884E-01   1.380205E-01   5.822543E-01   1.288001E+00   8.310855E-01   4.891837E-01   2.802887E-01   4.102574E-01   3.576473E-01   5.866925E-01   4.313060E-01
   6.129560E-01   4.002998E-01   2.494278E-01   1.155645E+00   2.507095E-01   2.640740E-01   3.391959E-01   3.716588E-01   7.294801E-01   5.988603E-01   3.907333E-01   6.343545E-01   1.505209E+00   6.006073E-01   5.566653E-01   7.117863E-01   3.181930E-01   2.023010E+00   1.067433E+00   3.757476E-01
   6.613086E-01   1.750764E-01   5.886077E-01   5.005243E-01   6.054614E-01   3.609181E-01   8.606730E-01   3.118965E-01   9.092442E-01   4.062242E-01   1.976305E-01   3.893432E-01   1.221053E+00   2.205104E-01   2.915477E-01   5.866040E-01   3.029951E-01   3.980036E-01   3.334145E-01   6.864830E-01
   4.390531E-01   9.097358E-01   2.204044E-01   1.021424E+00   7.342775E-01   5.450680E-01   6.053244E-01   3.877982E-01   3.072586E-01   1.174711E+00   4.655567E-01   2.754567E-01   6.169672E-01   5.555117E-01   7.435347E-01   3.904782E-01   3.149919E-01   2.848471E-01   2.887660E-01   6.948667E-01
   6.257020E-01   7.596266E-01   6.225157E-01   3.798974E-01   1.600955E+00   4.535223E-01   2.065312E-01   7.521788E-01   4.103200E-01   4.310986E-01   4.425798E-01   5.898845E-01   2.758079E-01   4.008214E-01   4.992819E-01   9.557434E-01   3.246132E-01   3.700344E-01   8.973948E-01   6.723532E-01
   5.417971E-01   3.440855E-01   8.410822E-01   4.892908E-01   5.181537E-01   5.197481E-01   5.230359E-01   7.578009E-01   4.284827E-01   1.556444E-01   4.171622E-01   4.838712E-01   5.263560E-01   3.485442E-01   2.535126E-01   6.462640E-01   7.235772E-01   2.153202E-01   4.269556E-01   3.354838E-01
   5.759271E-01   4.113322E-01   2.332653E-01   8.850160E-01   6.164621E-01   4.001934E-01   2.971060E-01   2.748378E-01   4.382069E-01   1.905904E-01   1.173412E+00   3.495924E-01   4.828672E-01   4.040554E-01   5.532621E-01   7.856616E-01   1.322440E-01   7.076907E-01   4.686108E-01   8.584385E-01
   6.107209E-01   2.294820E-01   2.702653E-01   9.107409E-01   7.527457E-01   4.348011E-01   6.947708E-01   3.676892E-01   8.182732E-01   4.343259E-01   3.378289E-01   5.430417E-01   4.420868E-01   6.417987E-01   4.012421E-01   4.754449E-01   1.749985E+00   8.013261E-01   4.313569E-01   5.454699E-01
