# Name file for MODFLOW-2005, generated by Flopy version 3.9.3.
#xll:0.0; yll:0.0; rotation:0.0; units:meters; lenuni:2; start_datetime:1-1-1970
LIST               2  array_demo.list
DIS               11  array_demo.dis
WEL               20  array_demo.wel
BAS6              13  array_demo.bas
LPF               15  array_demo.lpf
RCH               19  array_demo.rch
PCG               27  array_demo.pcg
OC                14  array_demo.oc
DATA            1001  demo_array.ref
DATA(BINARY)      51  array_demo.hds REPLACE
