# WEL package for MODFLOW-2005 generated by Flopy 3.9.3
         3         0 
         2         0 # stress period 1
         1         8        11           -50.0
         2         9        13           -30.0
         3         0 # stress period 2
         1         8        11           -60.0
         2         9        13           -40.0
         3         6        16           -20.0
         1         0 # stress period 3
         1         8        11           -35.0
        -1         0 # stress period 4
