# WEL package for MODFLOW-2005 generated by Flopy 3.9.3
         3         0 
         2         0 # stress period 1
         1         8        11         -1500.0
         2         9        13          -800.0
         3         0 # stress period 2
         1         8        11         -2000.0
         2         9        13         -1200.0
         3         6        16          -500.0
         1         0 # stress period 3
         1         8        11         -1000.0
        -1         0 # stress period 4
