# File generated by Flopy version 3.9.3 on 08/07/2025 at 01:13:47.
BEGIN options
END options

BEGIN dimensions
  NPER  1
END dimensions

BEGIN perioddata
      10.00000000  10       1.00000000
END perioddata

