# File generated by Flopy version 3.9.3 on 08/07/2025 at 01:13:47.
BEGIN options
END options

BEGIN dimensions
  MAXBOUND  5
END dimensions

BEGIN period  1
  1 1 1 3.00000000E+01
  1 1 10 3.00000000E+01
  1 10 1 3.00000000E+01
  1 10 10 3.00000000E+01
  3 6 6 2.00000000E+01
END period  1

