# File generated by Flopy version 3.9.3 on 08/07/2025 at 01:13:47.
BEGIN options
END options

BEGIN griddata
  icelltype
    CONSTANT  1
  k  LAYERED
    CONSTANT      10.00000000
    CONSTANT       5.00000000
    CONSTANT       1.00000000
END griddata

