# File generated by Flopy version 3.9.3 on 08/07/2025 at 01:13:47.
BEGIN options
END options

BEGIN griddata
  strt
    CONSTANT      25.00000000
END griddata

