# File generated by Flopy version 3.9.3 on 08/07/2025 at 01:13:47.
BEGIN options
END options

BEGIN dimensions
  MAXBOUND  2
END dimensions

BEGIN period  1
  2 3 6 -5.00000000E+01
  2 8 6 -5.00000000E+01
END period  1

