# File generated by Flopy version 3.9.3 on 08/07/2025 at 01:13:47.
BEGIN options
END options

BEGIN dimensions
  NLAY  3
  NROW  10
  NCOL  10
END dimensions

BEGIN griddata
  delr
    CONSTANT      10.00000000
  delc
    CONSTANT      10.00000000
  top
    CONSTANT      30.00000000
  botm  LAYERED
    CONSTANT      20.00000000
    CONSTANT      10.00000000
    CONSTANT       0.00000000
END griddata

