# Name file for MODFLOW-USG, generated by Flopy version 3.9.3.
#None; start_datetime:None
LIST               2  test.list

