# # MPBAS package for MODPATH 7 generated by Flopy 3.9.3
-999.99 -1e+30
2                   # DEFAULTIFACECOUNT
RECHARGE            # PACKAGE LABEL
6                   # DEFAULT IFACE VALUE
ET                  # PACKAGE LABEL
6                   # DEFAULT IFACE VALUE
         1         0         0
CONSTANT          1                                #ibound layer 1                
CONSTANT          1                                #ibound layer 2                
CONSTANT          1                                #ibound layer 3                
CONSTANT    3.000000E-01                           #porosity layer 1              
CONSTANT    3.000000E-01                           #porosity layer 2              
CONSTANT    3.000000E-01                           #porosity layer 3              
