# Name file for MODPATH 7, generated by Flopy version 3.9.3.
MPBAS      mp7_cases_mp7.mpbas
DIS        mp7_cases.dis
HEAD       ./mp7_cases.hds
BUDGET     ./mp7_cases.cbc
