# Name file for MODFLOW-2005, generated by Flopy version 3.9.3.
#xll:0.0; yll:0.0; rotation:0.0; units:meters; lenuni:2; start_datetime:1-1-1970
LIST               2  mp7_cases.list
DIS               11  mp7_cases.dis
BAS6              13  mp7_cases.bas
LPF               15  mp7_cases.lpf
WEL               20  mp7_cases.wel
RCH               19  mp7_cases.rch
RIV               18  mp7_cases.riv
PCG               27  mp7_cases.pcg
OC                14  mp7_cases.oc
DATA(BINARY)      53  mp7_cases.cbc REPLACE
DATA(BINARY)      51  mp7_cases.hds REPLACE
