# DIS package for MODFLOW-2005 generated by Flopy 3.9.3
         3        21        20         1         4         2
  0  0  0
CONSTANT    5.000000E+02                           #delr                          
CONSTANT    5.000000E+02                           #delc                          
CONSTANT    4.000000E+02                           #model_top                     
CONSTANT    2.200000E+02                           #botm layer 1                  
CONSTANT    2.000000E+02                           #botm layer 2                  
CONSTANT    0.000000E+00                           #botm layer 3                  
      1.000000             1  1.000000  SS
