# MPSIM package for MODPATH 7 generated by Flopy 3.9.3
mp7_cases_mp7.mpnam
mp7_cases_mp7.mplst
2 1 1 1 0 0
mp7_cases_mp7.mpend
mp7_cases_mp7.mppth
0
1
0
2
1
1
4
PG1_LineSource
1
0.0
EXTERNAL mp7_cases.pg1.sloc
PG2_Drape
1
0.0
EXTERNAL mp7_cases.pg2.sloc
PG3_WellCapture
1
0.0
EXTERNAL mp7_cases.pg3.sloc
PG4_Recharge
1
0.0
EXTERNAL mp7_cases.pg4.sloc
