# File generated by Flopy version 3.9.3 on 08/07/2025 at 00:20:04.
BEGIN options
END options

BEGIN timing
  TDIS6  demo.tdis
END timing

BEGIN models
  gwf6  model.nam  model
END models

BEGIN exchanges
END exchanges

BEGIN solutiongroup  1
  ims6  demo.ims  model
END solutiongroup  1

