# File generated by Flopy version 3.9.3 on 08/07/2025 at 00:20:04.
BEGIN options
END options

BEGIN dimensions
  MAXBOUND  1
END dimensions

BEGIN period  1
  1 6 6 -1.00000000E+02
END period  1

