# BAS6 package for MODFLOW-2005 generated by Flopy 3.9.3
FREE
INTERNAL               1    (20I10) -1 #ibound layer 1                
        -1         0         0         0         0         0         0         0         0         0         0         0         0         0         0         0         0         0         0        -1
        -1         1         1         1         1         1         1         1         1         1         1         1         1         1         1         1         1         1         1        -1
        -1         1         1         1         1         1         1         1         1         1         1         1         1         1         1         1         1         1         1        -1
        -1         1         1         1         1         1         1         1         1         1         1         1         1         1         1         1         1         1         1        -1
        -1         1         1         1         1         1         1         1         1         1         1         1         1         1         1         1         1         1         1        -1
        -1         1         1         1         1         1         1         1         1         1         1         1         1         1         1         1         1         1         1        -1
        -1         1         1         1         1         1         1         1         1         1         1         1         1         1         1         1         1         1         1        -1
        -1         1         1         1         1         1         1         1         1         1         1         1         1         1         1         1         1         1         1        -1
        -1         1         1         1         1         1         1         1         1         1         1         1         1         1         1         1         1         1         1        -1
        -1         1         1         1         1         1         1         1         1         1         1         1         1         1         1         1         1         1         1        -1
        -1         1         1         1         1         1         1         1         1         1         1         1         1         1         1         1         1         1         1        -1
        -1         1         1         1         1         1         1         1         1         1         1         1         1         1         1         1         1         1         1        -1
        -1         1         1         1         1         1         1         1         1         1         1         1         1         1         1         1         1         1         1        -1
        -1         1         1         1         1         1         1         1         1         1         1         1         1         1         1         1         1         1         1        -1
        -1         0         0         0         0         0         0         0         0         0         0         0         0         0         0         0         0         0         0        -1
   -999.99
INTERNAL               1  (20E15.6) -1 #strt layer 1                  
   2.500000E+01   2.475000E+01   2.450000E+01   2.425000E+01   2.400000E+01   2.375000E+01   2.350000E+01   2.325000E+01   2.300000E+01   2.275000E+01   2.250000E+01   2.225000E+01   2.200000E+01   2.175000E+01   2.150000E+01   2.125000E+01   2.100000E+01   2.075000E+01   2.050000E+01   2.025000E+01
   2.500000E+01   2.475000E+01   2.450000E+01   2.425000E+01   2.400000E+01   2.375000E+01   2.350000E+01   2.325000E+01   2.300000E+01   2.275000E+01   2.250000E+01   2.225000E+01   2.200000E+01   2.175000E+01   2.150000E+01   2.125000E+01   2.100000E+01   2.075000E+01   2.050000E+01   2.025000E+01
   2.500000E+01   2.475000E+01   2.450000E+01   2.425000E+01   2.400000E+01   2.375000E+01   2.350000E+01   2.325000E+01   2.300000E+01   2.275000E+01   2.250000E+01   2.225000E+01   2.200000E+01   2.175000E+01   2.150000E+01   2.125000E+01   2.100000E+01   2.075000E+01   2.050000E+01   2.025000E+01
   2.500000E+01   2.475000E+01   2.450000E+01   2.425000E+01   2.400000E+01   2.375000E+01   2.350000E+01   2.325000E+01   2.300000E+01   2.275000E+01   2.250000E+01   2.225000E+01   2.200000E+01   2.175000E+01   2.150000E+01   2.125000E+01   2.100000E+01   2.075000E+01   2.050000E+01   2.025000E+01
   2.500000E+01   2.475000E+01   2.450000E+01   2.425000E+01   2.400000E+01   2.375000E+01   2.350000E+01   2.325000E+01   2.300000E+01   2.275000E+01   2.250000E+01   2.225000E+01   2.200000E+01   2.175000E+01   2.150000E+01   2.125000E+01   2.100000E+01   2.075000E+01   2.050000E+01   2.025000E+01
   2.500000E+01   2.475000E+01   2.450000E+01   2.425000E+01   2.400000E+01   2.375000E+01   2.350000E+01   2.325000E+01   2.300000E+01   2.275000E+01   2.250000E+01   2.225000E+01   2.200000E+01   2.175000E+01   2.150000E+01   2.125000E+01   2.100000E+01   2.075000E+01   2.050000E+01   2.025000E+01
   2.500000E+01   2.475000E+01   2.450000E+01   2.425000E+01   2.400000E+01   2.375000E+01   2.350000E+01   2.325000E+01   2.300000E+01   2.275000E+01   2.250000E+01   2.225000E+01   2.200000E+01   2.175000E+01   2.150000E+01   2.125000E+01   2.100000E+01   2.075000E+01   2.050000E+01   2.025000E+01
   2.500000E+01   2.475000E+01   2.450000E+01   2.425000E+01   2.400000E+01   2.375000E+01   2.350000E+01   2.325000E+01   2.300000E+01   2.275000E+01   2.250000E+01   2.225000E+01   2.200000E+01   2.175000E+01   2.150000E+01   2.125000E+01   2.100000E+01   2.075000E+01   2.050000E+01   2.025000E+01
   2.500000E+01   2.475000E+01   2.450000E+01   2.425000E+01   2.400000E+01   2.375000E+01   2.350000E+01   2.325000E+01   2.300000E+01   2.275000E+01   2.250000E+01   2.225000E+01   2.200000E+01   2.175000E+01   2.150000E+01   2.125000E+01   2.100000E+01   2.075000E+01   2.050000E+01   2.025000E+01
   2.500000E+01   2.475000E+01   2.450000E+01   2.425000E+01   2.400000E+01   2.375000E+01   2.350000E+01   2.325000E+01   2.300000E+01   2.275000E+01   2.250000E+01   2.225000E+01   2.200000E+01   2.175000E+01   2.150000E+01   2.125000E+01   2.100000E+01   2.075000E+01   2.050000E+01   2.025000E+01
   2.500000E+01   2.475000E+01   2.450000E+01   2.425000E+01   2.400000E+01   2.375000E+01   2.350000E+01   2.325000E+01   2.300000E+01   2.275000E+01   2.250000E+01   2.225000E+01   2.200000E+01   2.175000E+01   2.150000E+01   2.125000E+01   2.100000E+01   2.075000E+01   2.050000E+01   2.025000E+01
   2.500000E+01   2.475000E+01   2.450000E+01   2.425000E+01   2.400000E+01   2.375000E+01   2.350000E+01   2.325000E+01   2.300000E+01   2.275000E+01   2.250000E+01   2.225000E+01   2.200000E+01   2.175000E+01   2.150000E+01   2.125000E+01   2.100000E+01   2.075000E+01   2.050000E+01   2.025000E+01
   2.500000E+01   2.475000E+01   2.450000E+01   2.425000E+01   2.400000E+01   2.375000E+01   2.350000E+01   2.325000E+01   2.300000E+01   2.275000E+01   2.250000E+01   2.225000E+01   2.200000E+01   2.175000E+01   2.150000E+01   2.125000E+01   2.100000E+01   2.075000E+01   2.050000E+01   2.025000E+01
   2.500000E+01   2.475000E+01   2.450000E+01   2.425000E+01   2.400000E+01   2.375000E+01   2.350000E+01   2.325000E+01   2.300000E+01   2.275000E+01   2.250000E+01   2.225000E+01   2.200000E+01   2.175000E+01   2.150000E+01   2.125000E+01   2.100000E+01   2.075000E+01   2.050000E+01   2.025000E+01
   2.500000E+01   2.475000E+01   2.450000E+01   2.425000E+01   2.400000E+01   2.375000E+01   2.350000E+01   2.325000E+01   2.300000E+01   2.275000E+01   2.250000E+01   2.225000E+01   2.200000E+01   2.175000E+01   2.150000E+01   2.125000E+01   2.100000E+01   2.075000E+01   2.050000E+01   2.025000E+01
