# Name file for MODFLOW-2005, generated by Flopy version 3.9.3.
#xll:0.0; yll:0.0; rotation:0.0; units:meters; lenuni:2; start_datetime:1-1-1970
LIST               2  mp5_demo.list
DIS               11  mp5_demo.dis
BAS6              13  mp5_demo.bas
LPF               15  mp5_demo.lpf
WEL               20  mp5_demo.wel
OC                14  mp5_demo.oc
PCG               27  mp5_demo.pcg
DATA(BINARY)      51  mp5_demo.hds REPLACE
