# File generated by Flopy version 3.9.3 on 08/07/2025 at 18:48:34.
BEGIN options
END options

BEGIN timing
  TDIS6  unstructured_demo.tdis
END timing

BEGIN models
  gwf6  model.nam  model
END models

BEGIN exchanges
END exchanges

BEGIN solutiongroup  1
  ims6  unstructured_demo.ims  model
END solutiongroup  1

