# File generated by Flopy version 3.9.3 on 08/07/2025 at 18:48:34.
BEGIN options
END options

BEGIN dimensions
  MAXBOUND  2
END dimensions

BEGIN period  1
  1 1.00000000E+01
  296 5.00000000E+00
END period  1

