# File generated by Flopy version 3.9.3 on 08/08/2025 at 09:11:20.
BEGIN options
  LENGTH_UNITS  meters
  VERTICAL_OFFSET_TOLERANCE       0.00000000
END options

BEGIN dimensions
  NODES  296
  NJA  1984
END dimensions

BEGIN griddata
  top
    INTERNAL  FACTOR  1.0
        10.00000000      -5.00000000      10.00000000      -5.00000000      10.00000000      -5.00000000      10.00000000      -5.00000000      10.00000000      -5.00000000      10.00000000      -5.00000000      10.00000000      -5.00000000      10.00000000      -5.00000000      10.00000000      -5.00000000      10.00000000      -5.00000000
        10.00000000      -5.00000000      10.00000000      -5.00000000      10.00000000      -5.00000000      10.00000000      -5.00000000      10.00000000      -5.00000000      10.00000000      -5.00000000      10.00000000      -5.00000000      10.00000000      -5.00000000      10.00000000      -5.00000000      10.00000000      -5.00000000
        10.00000000      -5.00000000      10.00000000      -5.00000000      10.00000000      -5.00000000      10.00000000      -5.00000000      10.00000000      -5.00000000      10.00000000      -5.00000000      10.00000000      -5.00000000      10.00000000      -5.00000000      10.00000000      -5.00000000      10.00000000      -5.00000000
        10.00000000      -5.00000000      10.00000000      -5.00000000      10.00000000      -5.00000000      10.00000000      -5.00000000      10.00000000      -5.00000000      10.00000000      -5.00000000      10.00000000      -5.00000000      10.00000000      -5.00000000      10.00000000      -5.00000000      10.00000000      -5.00000000
        10.00000000      -5.00000000      10.00000000      -5.00000000      10.00000000      -5.00000000      10.00000000      -5.00000000      10.00000000      -5.00000000      10.00000000      -5.00000000      10.00000000      -5.00000000      10.00000000      -5.00000000      10.00000000      -5.00000000      10.00000000      -5.00000000
        10.00000000      -5.00000000      10.00000000      -5.00000000      10.00000000      -5.00000000      10.00000000      -5.00000000      10.00000000      -5.00000000      10.00000000      -5.00000000      10.00000000      -5.00000000      10.00000000      -5.00000000      10.00000000      -5.00000000      10.00000000      -5.00000000
        10.00000000      -5.00000000      10.00000000      -5.00000000      10.00000000      -5.00000000      10.00000000      -5.00000000      10.00000000      -5.00000000      10.00000000      -5.00000000      10.00000000      -5.00000000      10.00000000      -5.00000000      10.00000000      -5.00000000      10.00000000      -5.00000000
        10.00000000      -5.00000000      10.00000000      -5.00000000      10.00000000      -5.00000000      10.00000000      -5.00000000      10.00000000      -5.00000000      10.00000000      -5.00000000      10.00000000      -5.00000000      10.00000000      -5.00000000      10.00000000      -5.00000000      10.00000000      -5.00000000
        10.00000000      -5.00000000      10.00000000      -5.00000000      10.00000000      -5.00000000      10.00000000      -5.00000000      10.00000000      -5.00000000      10.00000000      -5.00000000      10.00000000      -5.00000000      10.00000000      -5.00000000      10.00000000      -5.00000000      10.00000000      -5.00000000
        10.00000000      -5.00000000      10.00000000      -5.00000000      10.00000000      -5.00000000      10.00000000      -5.00000000      10.00000000      -5.00000000      10.00000000      -5.00000000      10.00000000      -5.00000000      10.00000000      -5.00000000      10.00000000      -5.00000000      10.00000000      -5.00000000
        10.00000000      -5.00000000      10.00000000      -5.00000000      10.00000000      -5.00000000      10.00000000      -5.00000000      10.00000000      -5.00000000      10.00000000      -5.00000000      10.00000000      -5.00000000      10.00000000      -5.00000000      10.00000000      -5.00000000      10.00000000      -5.00000000
        10.00000000      -5.00000000      10.00000000      -5.00000000      10.00000000      -5.00000000      10.00000000      -5.00000000      10.00000000      -5.00000000      10.00000000      -5.00000000      10.00000000      -5.00000000      10.00000000      -5.00000000      10.00000000      -5.00000000      10.00000000      -5.00000000
        10.00000000      -5.00000000      10.00000000      -5.00000000      10.00000000      -5.00000000      10.00000000      -5.00000000      10.00000000      -5.00000000      10.00000000      -5.00000000      10.00000000      -5.00000000      10.00000000      -5.00000000      10.00000000      -5.00000000      10.00000000      -5.00000000
        10.00000000      -5.00000000      10.00000000      -5.00000000      10.00000000      -5.00000000      10.00000000      -5.00000000      10.00000000      -5.00000000      10.00000000      -5.00000000      10.00000000      -5.00000000      10.00000000      -5.00000000      10.00000000      -5.00000000      10.00000000      -5.00000000
        10.00000000      -5.00000000      10.00000000      -5.00000000      10.00000000      -5.00000000      10.00000000      -5.00000000      10.00000000      -5.00000000      10.00000000      -5.00000000      10.00000000      -5.00000000      10.00000000      -5.00000000
  bot
    INTERNAL  FACTOR  1.0
        -5.00000000     -10.00000000      -5.00000000     -10.00000000      -5.00000000     -10.00000000      -5.00000000     -10.00000000      -5.00000000     -10.00000000      -5.00000000     -10.00000000      -5.00000000     -10.00000000      -5.00000000     -10.00000000      -5.00000000     -10.00000000      -5.00000000     -10.00000000
        -5.00000000     -10.00000000      -5.00000000     -10.00000000      -5.00000000     -10.00000000      -5.00000000     -10.00000000      -5.00000000     -10.00000000      -5.00000000     -10.00000000      -5.00000000     -10.00000000      -5.00000000     -10.00000000      -5.00000000     -10.00000000      -5.00000000     -10.00000000
        -5.00000000     -10.00000000      -5.00000000     -10.00000000      -5.00000000     -10.00000000      -5.00000000     -10.00000000      -5.00000000     -10.00000000      -5.00000000     -10.00000000      -5.00000000     -10.00000000      -5.00000000     -10.00000000      -5.00000000     -10.00000000      -5.00000000     -10.00000000
        -5.00000000     -10.00000000      -5.00000000     -10.00000000      -5.00000000     -10.00000000      -5.00000000     -10.00000000      -5.00000000     -10.00000000      -5.00000000     -10.00000000      -5.00000000     -10.00000000      -5.00000000     -10.00000000      -5.00000000     -10.00000000      -5.00000000     -10.00000000
        -5.00000000     -10.00000000      -5.00000000     -10.00000000      -5.00000000     -10.00000000      -5.00000000     -10.00000000      -5.00000000     -10.00000000      -5.00000000     -10.00000000      -5.00000000     -10.00000000      -5.00000000     -10.00000000      -5.00000000     -10.00000000      -5.00000000     -10.00000000
        -5.00000000     -10.00000000      -5.00000000     -10.00000000      -5.00000000     -10.00000000      -5.00000000     -10.00000000      -5.00000000     -10.00000000      -5.00000000     -10.00000000      -5.00000000     -10.00000000      -5.00000000     -10.00000000      -5.00000000     -10.00000000      -5.00000000     -10.00000000
        -5.00000000     -10.00000000      -5.00000000     -10.00000000      -5.00000000     -10.00000000      -5.00000000     -10.00000000      -5.00000000     -10.00000000      -5.00000000     -10.00000000      -5.00000000     -10.00000000      -5.00000000     -10.00000000      -5.00000000     -10.00000000      -5.00000000     -10.00000000
        -5.00000000     -10.00000000      -5.00000000     -10.00000000      -5.00000000     -10.00000000      -5.00000000     -10.00000000      -5.00000000     -10.00000000      -5.00000000     -10.00000000      -5.00000000     -10.00000000      -5.00000000     -10.00000000      -5.00000000     -10.00000000      -5.00000000     -10.00000000
        -5.00000000     -10.00000000      -5.00000000     -10.00000000      -5.00000000     -10.00000000      -5.00000000     -10.00000000      -5.00000000     -10.00000000      -5.00000000     -10.00000000      -5.00000000     -10.00000000      -5.00000000     -10.00000000      -5.00000000     -10.00000000      -5.00000000     -10.00000000
        -5.00000000     -10.00000000      -5.00000000     -10.00000000      -5.00000000     -10.00000000      -5.00000000     -10.00000000      -5.00000000     -10.00000000      -5.00000000     -10.00000000      -5.00000000     -10.00000000      -5.00000000     -10.00000000      -5.00000000     -10.00000000      -5.00000000     -10.00000000
        -5.00000000     -10.00000000      -5.00000000     -10.00000000      -5.00000000     -10.00000000      -5.00000000     -10.00000000      -5.00000000     -10.00000000      -5.00000000     -10.00000000      -5.00000000     -10.00000000      -5.00000000     -10.00000000      -5.00000000     -10.00000000      -5.00000000     -10.00000000
        -5.00000000     -10.00000000      -5.00000000     -10.00000000      -5.00000000     -10.00000000      -5.00000000     -10.00000000      -5.00000000     -10.00000000      -5.00000000     -10.00000000      -5.00000000     -10.00000000      -5.00000000     -10.00000000      -5.00000000     -10.00000000      -5.00000000     -10.00000000
        -5.00000000     -10.00000000      -5.00000000     -10.00000000      -5.00000000     -10.00000000      -5.00000000     -10.00000000      -5.00000000     -10.00000000      -5.00000000     -10.00000000      -5.00000000     -10.00000000      -5.00000000     -10.00000000      -5.00000000     -10.00000000      -5.00000000     -10.00000000
        -5.00000000     -10.00000000      -5.00000000     -10.00000000      -5.00000000     -10.00000000      -5.00000000     -10.00000000      -5.00000000     -10.00000000      -5.00000000     -10.00000000      -5.00000000     -10.00000000      -5.00000000     -10.00000000      -5.00000000     -10.00000000      -5.00000000     -10.00000000
        -5.00000000     -10.00000000      -5.00000000     -10.00000000      -5.00000000     -10.00000000      -5.00000000     -10.00000000      -5.00000000     -10.00000000      -5.00000000     -10.00000000      -5.00000000     -10.00000000      -5.00000000     -10.00000000
  area
    INTERNAL  FACTOR  1.0
       100.00000000     100.00000000     100.00000000     100.00000000     100.00000000     100.00000000     100.00000000     100.00000000     100.00000000     100.00000000     100.00000000     100.00000000     100.00000000     100.00000000     100.00000000     100.00000000     100.00000000     100.00000000     100.00000000     100.00000000
       100.00000000     100.00000000     100.00000000     100.00000000     100.00000000     100.00000000     100.00000000     100.00000000     100.00000000     100.00000000     100.00000000     100.00000000     100.00000000     100.00000000     100.00000000     100.00000000     100.00000000     100.00000000     100.00000000     100.00000000
       100.00000000     100.00000000     100.00000000     100.00000000     100.00000000     100.00000000     100.00000000     100.00000000     100.00000000     100.00000000     100.00000000     100.00000000     100.00000000     100.00000000     100.00000000     100.00000000     100.00000000     100.00000000     100.00000000     100.00000000
       100.00000000     100.00000000     100.00000000     100.00000000     100.00000000     100.00000000     100.00000000     100.00000000     100.00000000     100.00000000     100.00000000     100.00000000     100.00000000     100.00000000     100.00000000     100.00000000     100.00000000     100.00000000     100.00000000     100.00000000
       100.00000000     100.00000000     100.00000000     100.00000000     100.00000000     100.00000000     100.00000000     100.00000000     100.00000000     100.00000000     100.00000000     100.00000000     100.00000000     100.00000000     100.00000000     100.00000000     100.00000000     100.00000000     100.00000000     100.00000000
       100.00000000     100.00000000     100.00000000     100.00000000     100.00000000     100.00000000     100.00000000     100.00000000     100.00000000     100.00000000     100.00000000     100.00000000     100.00000000     100.00000000     100.00000000     100.00000000     100.00000000     100.00000000     100.00000000     100.00000000
       100.00000000     100.00000000     100.00000000     100.00000000     100.00000000     100.00000000     100.00000000     100.00000000     100.00000000     100.00000000     100.00000000     100.00000000     100.00000000     100.00000000     100.00000000     100.00000000     100.00000000     100.00000000     100.00000000     100.00000000
       100.00000000     100.00000000     100.00000000     100.00000000     100.00000000     100.00000000     100.00000000     100.00000000     100.00000000     100.00000000     100.00000000     100.00000000     100.00000000     100.00000000     100.00000000     100.00000000     100.00000000     100.00000000     100.00000000     100.00000000
       100.00000000     100.00000000     100.00000000     100.00000000     100.00000000     100.00000000     100.00000000     100.00000000      25.00000000      25.00000000      25.00000000      25.00000000      25.00000000      25.00000000      25.00000000      25.00000000      25.00000000      25.00000000      25.00000000      25.00000000
        25.00000000      25.00000000      25.00000000      25.00000000      25.00000000      25.00000000      25.00000000      25.00000000      25.00000000      25.00000000      25.00000000      25.00000000      25.00000000      25.00000000      25.00000000      25.00000000      25.00000000      25.00000000      25.00000000      25.00000000
        25.00000000      25.00000000      25.00000000      25.00000000      25.00000000      25.00000000      25.00000000      25.00000000      25.00000000      25.00000000      25.00000000      25.00000000      25.00000000      25.00000000      25.00000000      25.00000000      25.00000000      25.00000000      25.00000000      25.00000000
        25.00000000      25.00000000      25.00000000      25.00000000      25.00000000      25.00000000      25.00000000      25.00000000      25.00000000      25.00000000      25.00000000      25.00000000      25.00000000      25.00000000      25.00000000      25.00000000      25.00000000      25.00000000      25.00000000      25.00000000
        25.00000000      25.00000000      25.00000000      25.00000000      25.00000000      25.00000000      25.00000000      25.00000000      25.00000000      25.00000000      25.00000000      25.00000000      25.00000000      25.00000000      25.00000000      25.00000000      25.00000000      25.00000000      25.00000000      25.00000000
        25.00000000      25.00000000      25.00000000      25.00000000      25.00000000      25.00000000      25.00000000      25.00000000      25.00000000      25.00000000      25.00000000      25.00000000      25.00000000      25.00000000      25.00000000      25.00000000      25.00000000      25.00000000      25.00000000      25.00000000
        25.00000000      25.00000000      25.00000000      25.00000000      25.00000000      25.00000000      25.00000000      25.00000000      25.00000000      25.00000000      25.00000000      25.00000000      25.00000000      25.00000000      25.00000000      25.00000000
END griddata

BEGIN connectiondata
  iac
    INTERNAL  FACTOR  1
    4  4  5  5  5  5  5  5  5  5  5  5  5  5  5  5  5  5  4  4
    5  5  6  6  6  6  6  6  6  6  6  6  6  6  6  6  6  6  5  5
    5  5  6  6  6  6  5  5  5  5  5  5  5  5  6  6  6  6  5  5
    5  5  6  6  5  5  5  5  6  6  5  5  5  5  6  6  5  5  5  5
    6  6  5  5  5  5  6  6  5  5  5  5  6  6  5  5  5  5  6  6
    5  5  5  5  6  6  5  5  5  5  6  6  6  6  5  5  5  5  5  5
    5  5  6  6  6  6  5  5  5  5  6  6  6  6  6  6  6  6  6  6
    6  6  6  6  6  6  5  5  4  4  5  5  5  5  5  5  5  5  5  5
    5  5  5  5  5  5  4  4  6  6  7  7  8  8  8  8  8  8  8  8
    7  7  6  6  7  7  8  8  9  9  9  9  9  9  9  9  8  8  7  7
    8  8  9  9  10  10  10  10  10  10  10  10  9  9  8  8  8  8  9  9
    10  10  10  10  10  10  10  10  9  9  8  8  8  8  9  9  10  10  10  10
    10  10  10  10  9  9  8  8  8  8  9  9  10  10  10  10  10  10  10  10
    9  9  8  8  7  7  8  8  9  9  9  9  9  9  9  9  8  8  7  7
    6  6  7  7  8  8  8  8  8  8  8  8  7  7  6  6
  ja
    INTERNAL  FACTOR  1
    1  2  3  21
    2  1  4  22
    3  1  4  5  23
    4  2  3  6  24
    5  3  6  7  25
    6  4  5  8  26
    7  5  8  9  27
    8  6  7  10  28
    9  7  10  11  29
    10  8  9  12  30
    11  9  12  13  31
    12  10  11  14  32
    13  11  14  15  33
    14  12  13  16  34
    15  13  16  17  35
    16  14  15  18  36
    17  15  18  19  37
    18  16  17  20  38
    19  17  20  39
    20  18  19  40
    21  1  22  23  41
    22  2  21  24  42
    23  3  21  24  25  43
    24  4  22  23  26  44
    25  5  23  26  27  45
    26  6  24  25  28  46
    27  7  25  28  29  47
    28  8  26  27  30  48
    29  9  27  30  31  49
    30  10  28  29  32  50
    31  11  29  32  33  51
    32  12  30  31  34  52
    33  13  31  34  35  53
    34  14  32  33  36  54
    35  15  33  36  37  55
    36  16  34  35  38  56
    37  17  35  38  39  57
    38  18  36  37  40  58
    39  19  37  40  59
    40  20  38  39  60
    41  21  42  43  61
    42  22  41  44  62
    43  23  41  44  45  63
    44  24  42  43  46  64
    45  25  43  46  47  65
    46  26  44  45  48  66
    47  27  45  48  49
    48  28  46  47  50
    49  29  47  50  51
    50  30  48  49  52
    51  31  49  52  53
    52  32  50  51  54
    53  33  51  54  55
    54  34  52  53  56
    55  35  53  56  57  67
    56  36  54  55  58  68
    57  37  55  58  59  69
    58  38  56  57  60  70
    59  39  57  60  71
    60  40  58  59  72
    61  41  62  63  73
    62  42  61  64  74
    63  43  61  64  65  75
    64  44  62  63  66  76
    65  45  63  66  77
    66  46  64  65  78
    67  55  68  69  79
    68  56  67  70  80
    69  57  67  70  71  81
    70  58  68  69  72  82
    71  59  69  72  83
    72  60  70  71  84
    73  61  74  75  85
    74  62  73  76  86
    75  63  73  76  77  87
    76  64  74  75  78  88
    77  65  75  78  89
    78  66  76  77  90
    79  67  80  81  91
    80  68  79  82  92
    81  69  79  82  83  93
    82  70  80  81  84  94
    83  71  81  84  95
    84  72  82  83  96
    85  73  86  87  97
    86  74  85  88  98
    87  75  85  88  89  99
    88  76  86  87  90  100
    89  77  87  90  101
    90  78  88  89  102
    91  79  92  93  103
    92  80  91  94  104
    93  81  91  94  95  105
    94  82  92  93  96  106
    95  83  93  96  107
    96  84  94  95  108
    97  85  98  99  109
    98  86  97  100  110
    99  87  97  100  101  111
    100  88  98  99  102  112
    101  89  99  102  113
    102  90  100  101  114
    103  91  104  105  123
    104  92  103  106  124
    105  93  103  106  107  125
    106  94  104  105  108  126
    107  95  105  108  127
    108  96  106  107  128
    109  97  110  111  129
    110  98  109  112  130
    111  99  109  112  113  131
    112  100  110  111  114  132
    113  101  111  114  115  133
    114  102  112  113  116  134
    115  113  116  117  135
    116  114  115  118  136
    117  115  118  119  137
    118  116  117  120  138
    119  117  120  121  139
    120  118  119  122  140
    121  119  122  123  141
    122  120  121  124  142
    123  103  121  124  125  143
    124  104  122  123  126  144
    125  105  123  126  127  145
    126  106  124  125  128  146
    127  107  125  128  147
    128  108  126  127  148
    129  109  130  131  149
    130  110  129  132  150
    131  111  129  132  133  151
    132  112  130  131  134  152
    133  113  131  134  135  153
    134  114  132  133  136  154
    135  115  133  136  137  155
    136  116  134  135  138  156
    137  117  135  138  139  157
    138  118  136  137  140  158
    139  119  137  140  141  159
    140  120  138  139  142  160
    141  121  139  142  143  161
    142  122  140  141  144  162
    143  123  141  144  145  163
    144  124  142  143  146  164
    145  125  143  146  147  165
    146  126  144  145  148  166
    147  127  145  148  167
    148  128  146  147  168
    149  129  150  151
    150  130  149  152
    151  131  149  152  153
    152  132  150  151  154
    153  133  151  154  155
    154  134  152  153  156
    155  135  153  156  157
    156  136  154  155  158
    157  137  155  158  159
    158  138  156  157  160
    159  139  157  160  161
    160  140  158  159  162
    161  141  159  162  163
    162  142  160  161  164
    163  143  161  164  165
    164  144  162  163  166
    165  145  163  166  167
    166  146  164  165  168
    167  147  165  168
    168  148  166  167
    169  170  171  173  185  201
    170  169  172  174  186  202
    171  169  172  173  175  187  203
    172  170  171  174  176  188  204
    173  169  171  174  175  177  189  205
    174  170  172  173  176  178  190  206
    175  171  173  176  177  179  191  207
    176  172  174  175  178  180  192  208
    177  173  175  178  179  181  193  209
    178  174  176  177  180  182  194  210
    179  175  177  180  181  183  195  211
    180  176  178  179  182  184  196  212
    181  177  179  182  183  197  213
    182  178  180  181  184  198  214
    183  179  181  184  199  215
    184  180  182  183  200  216
    185  169  186  187  189  201  217
    186  170  185  188  190  202  218
    187  171  185  188  189  191  203  219
    188  172  186  187  190  192  204  220
    189  173  185  187  190  191  193  205  221
    190  174  186  188  189  192  194  206  222
    191  175  187  189  192  193  195  207  223
    192  176  188  190  191  194  196  208  224
    193  177  189  191  194  195  197  209  225
    194  178  190  192  193  196  198  210  226
    195  179  191  193  196  197  199  211  227
    196  180  192  194  195  198  200  212  228
    197  181  193  195  198  199  213  229
    198  182  194  196  197  200  214  230
    199  183  195  197  200  215  231
    200  184  196  198  199  216  232
    201  169  185  202  203  205  217  233
    202  170  186  201  204  206  218  234
    203  171  187  201  204  205  207  219  235
    204  172  188  202  203  206  208  220  236
    205  173  189  201  203  206  207  209  221  237
    206  174  190  202  204  205  208  210  222  238
    207  175  191  203  205  208  209  211  223  239
    208  176  192  204  206  207  210  212  224  240
    209  177  193  205  207  210  211  213  225  241
    210  178  194  206  208  209  212  214  226  242
    211  179  195  207  209  212  213  215  227  243
    212  180  196  208  210  211  214  216  228  244
    213  181  197  209  211  214  215  229  245
    214  182  198  210  212  213  216  230  246
    215  183  199  211  213  216  231  247
    216  184  200  212  214  215  232  248
    217  185  201  218  219  221  233  249
    218  186  202  217  220  222  234  250
    219  187  203  217  220  221  223  235  251
    220  188  204  218  219  222  224  236  252
    221  189  205  217  219  222  223  225  237  253
    222  190  206  218  220  221  224  226  238  254
    223  191  207  219  221  224  225  227  239  255
    224  192  208  220  222  223  226  228  240  256
    225  193  209  221  223  226  227  229  241  257
    226  194  210  222  224  225  228  230  242  258
    227  195  211  223  225  228  229  231  243  259
    228  196  212  224  226  227  230  232  244  260
    229  197  213  225  227  230  231  245  261
    230  198  214  226  228  229  232  246  262
    231  199  215  227  229  232  247  263
    232  200  216  228  230  231  248  264
    233  201  217  234  235  237  249  265
    234  202  218  233  236  238  250  266
    235  203  219  233  236  237  239  251  267
    236  204  220  234  235  238  240  252  268
    237  205  221  233  235  238  239  241  253  269
    238  206  222  234  236  237  240  242  254  270
    239  207  223  235  237  240  241  243  255  271
    240  208  224  236  238  239  242  244  256  272
    241  209  225  237  239  242  243  245  257  273
    242  210  226  238  240  241  244  246  258  274
    243  211  227  239  241  244  245  247  259  275
    244  212  228  240  242  243  246  248  260  276
    245  213  229  241  243  246  247  261  277
    246  214  230  242  244  245  248  262  278
    247  215  231  243  245  248  263  279
    248  216  232  244  246  247  264  280
    249  217  233  250  251  253  265  281
    250  218  234  249  252  254  266  282
    251  219  235  249  252  253  255  267  283
    252  220  236  250  251  254  256  268  284
    253  221  237  249  251  254  255  257  269  285
    254  222  238  250  252  253  256  258  270  286
    255  223  239  251  253  256  257  259  271  287
    256  224  240  252  254  255  258  260  272  288
    257  225  241  253  255  258  259  261  273  289
    258  226  242  254  256  257  260  262  274  290
    259  227  243  255  257  260  261  263  275  291
    260  228  244  256  258  259  262  264  276  292
    261  229  245  257  259  262  263  277  293
    262  230  246  258  260  261  264  278  294
    263  231  247  259  261  264  279  295
    264  232  248  260  262  263  280  296
    265  233  249  266  267  269  281
    266  234  250  265  268  270  282
    267  235  251  265  268  269  271  283
    268  236  252  266  267  270  272  284
    269  237  253  265  267  270  271  273  285
    270  238  254  266  268  269  272  274  286
    271  239  255  267  269  272  273  275  287
    272  240  256  268  270  271  274  276  288
    273  241  257  269  271  274  275  277  289
    274  242  258  270  272  273  276  278  290
    275  243  259  271  273  276  277  279  291
    276  244  260  272  274  275  278  280  292
    277  245  261  273  275  278  279  293
    278  246  262  274  276  277  280  294
    279  247  263  275  277  280  295
    280  248  264  276  278  279  296
    281  249  265  282  283  285
    282  250  266  281  284  286
    283  251  267  281  284  285  287
    284  252  268  282  283  286  288
    285  253  269  281  283  286  287  289
    286  254  270  282  284  285  288  290
    287  255  271  283  285  288  289  291
    288  256  272  284  286  287  290  292
    289  257  273  285  287  290  291  293
    290  258  274  286  288  289  292  294
    291  259  275  287  289  292  293  295
    292  260  276  288  290  291  294  296
    293  261  277  289  291  294  295
    294  262  278  290  292  293  296
    295  263  279  291  293  296
    296  264  280  292  294  295
  ihc
    INTERNAL  FACTOR  1
    0  0  1  1
    0  0  1  1
    0  1  0  1  1
    0  1  0  1  1
    0  1  0  1  1
    0  1  0  1  1
    0  1  0  1  1
    0  1  0  1  1
    0  1  0  1  1
    0  1  0  1  1
    0  1  0  1  1
    0  1  0  1  1
    0  1  0  1  1
    0  1  0  1  1
    0  1  0  1  1
    0  1  0  1  1
    0  1  0  1  1
    0  1  0  1  1
    0  1  0  1
    0  1  0  1
    0  1  0  1  1
    0  1  0  1  1
    0  1  1  0  1  1
    0  1  1  0  1  1
    0  1  1  0  1  1
    0  1  1  0  1  1
    0  1  1  0  1  1
    0  1  1  0  1  1
    0  1  1  0  1  1
    0  1  1  0  1  1
    0  1  1  0  1  1
    0  1  1  0  1  1
    0  1  1  0  1  1
    0  1  1  0  1  1
    0  1  1  0  1  1
    0  1  1  0  1  1
    0  1  1  0  1  1
    0  1  1  0  1  1
    0  1  1  0  1
    0  1  1  0  1
    0  1  0  1  1
    0  1  0  1  1
    0  1  1  0  1  1
    0  1  1  0  1  1
    0  1  1  0  1  1
    0  1  1  0  1  1
    0  1  1  0  1
    0  1  1  0  1
    0  1  1  0  1
    0  1  1  0  1
    0  1  1  0  1
    0  1  1  0  1
    0  1  1  0  1
    0  1  1  0  1
    0  1  1  0  1  1
    0  1  1  0  1  1
    0  1  1  0  1  1
    0  1  1  0  1  1
    0  1  1  0  1
    0  1  1  0  1
    0  1  0  1  1
    0  1  0  1  1
    0  1  1  0  1  1
    0  1  1  0  1  1
    0  1  1  0  1
    0  1  1  0  1
    0  1  0  1  1
    0  1  0  1  1
    0  1  1  0  1  1
    0  1  1  0  1  1
    0  1  1  0  1
    0  1  1  0  1
    0  1  0  1  1
    0  1  0  1  1
    0  1  1  0  1  1
    0  1  1  0  1  1
    0  1  1  0  1
    0  1  1  0  1
    0  1  0  1  1
    0  1  0  1  1
    0  1  1  0  1  1
    0  1  1  0  1  1
    0  1  1  0  1
    0  1  1  0  1
    0  1  0  1  1
    0  1  0  1  1
    0  1  1  0  1  1
    0  1  1  0  1  1
    0  1  1  0  1
    0  1  1  0  1
    0  1  0  1  1
    0  1  0  1  1
    0  1  1  0  1  1
    0  1  1  0  1  1
    0  1  1  0  1
    0  1  1  0  1
    0  1  0  1  1
    0  1  0  1  1
    0  1  1  0  1  1
    0  1  1  0  1  1
    0  1  1  0  1
    0  1  1  0  1
    0  1  0  1  1
    0  1  0  1  1
    0  1  1  0  1  1
    0  1  1  0  1  1
    0  1  1  0  1
    0  1  1  0  1
    0  1  0  1  1
    0  1  0  1  1
    0  1  1  0  1  1
    0  1  1  0  1  1
    0  1  1  0  1  1
    0  1  1  0  1  1
    0  1  0  1  1
    0  1  0  1  1
    0  1  0  1  1
    0  1  0  1  1
    0  1  0  1  1
    0  1  0  1  1
    0  1  0  1  1
    0  1  0  1  1
    0  1  1  0  1  1
    0  1  1  0  1  1
    0  1  1  0  1  1
    0  1  1  0  1  1
    0  1  1  0  1
    0  1  1  0  1
    0  1  0  1  1
    0  1  0  1  1
    0  1  1  0  1  1
    0  1  1  0  1  1
    0  1  1  0  1  1
    0  1  1  0  1  1
    0  1  1  0  1  1
    0  1  1  0  1  1
    0  1  1  0  1  1
    0  1  1  0  1  1
    0  1  1  0  1  1
    0  1  1  0  1  1
    0  1  1  0  1  1
    0  1  1  0  1  1
    0  1  1  0  1  1
    0  1  1  0  1  1
    0  1  1  0  1  1
    0  1  1  0  1  1
    0  1  1  0  1
    0  1  1  0  1
    0  1  0  1
    0  1  0  1
    0  1  1  0  1
    0  1  1  0  1
    0  1  1  0  1
    0  1  1  0  1
    0  1  1  0  1
    0  1  1  0  1
    0  1  1  0  1
    0  1  1  0  1
    0  1  1  0  1
    0  1  1  0  1
    0  1  1  0  1
    0  1  1  0  1
    0  1  1  0  1