# RCH package for MODFLOW-2005 generated by Flopy 3.9.3
         3        53
         1        -1 # Stress period 1
INTERNAL               1  (20E15.6) -1 #rech_1                        
   2.000000E-03   2.000000E-03   2.000000E-03   2.000000E-03   2.000000E-03   2.000000E-03   2.000000E-03   2.000000E-03   2.000000E-03   2.000000E-03   2.000000E-03   2.000000E-03   2.000000E-03   2.000000E-03   2.000000E-03   2.000000E-03   2.000000E-03   2.000000E-03   2.000000E-03   2.000000E-03
   2.000000E-03   2.000000E-03   2.000000E-03   2.000000E-03   2.000000E-03   2.000000E-03   2.000000E-03   2.000000E-03   2.000000E-03   2.000000E-03   2.000000E-03   2.000000E-03   2.000000E-03   2.000000E-03   2.000000E-03   2.000000E-03   2.000000E-03   2.000000E-03   2.000000E-03   2.000000E-03
   2.000000E-03   2.000000E-03   2.000000E-03   2.000000E-03   2.000000E-03   2.000000E-03   2.000000E-03   2.000000E-03   2.000000E-03   2.000000E-03   2.000000E-03   2.000000E-03   2.000000E-03   2.000000E-03   2.000000E-03   2.000000E-03   2.000000E-03   2.000000E-03   2.000000E-03   2.000000E-03
   2.000000E-03   2.000000E-03   2.000000E-03   2.000000E-03   2.000000E-03   2.000000E-03   2.000000E-03   2.000000E-03   2.000000E-03   2.000000E-03   2.000000E-03   2.000000E-03   2.000000E-03   2.000000E-03   2.000000E-03   2.000000E-03   2.000000E-03   2.000000E-03   2.000000E-03   2.000000E-03
   2.000000E-03   2.000000E-03   2.000000E-03   2.000000E-03   2.000000E-03   2.000000E-03   2.000000E-03   2.000000E-03   2.000000E-03   2.000000E-03   2.000000E-03   2.000000E-03   2.000000E-03   2.000000E-03   2.000000E-03   2.000000E-03   2.000000E-03   2.000000E-03   2.000000E-03   2.000000E-03
   2.000000E-03   2.000000E-03   2.000000E-03   2.000000E-03   2.000000E-03   2.000000E-03   2.000000E-03   2.000000E-03   2.000000E-03   2.000000E-03   2.000000E-03   2.000000E-03   2.000000E-03   2.000000E-03   2.000000E-03   2.000000E-03   2.000000E-03   2.000000E-03   2.000000E-03   2.000000E-03
   2.000000E-03   2.000000E-03   2.000000E-03   2.000000E-03   2.000000E-03   2.000000E-03   2.000000E-03   2.000000E-03   2.000000E-03   2.000000E-03   2.000000E-03   2.000000E-03   2.000000E-03   2.000000E-03   2.000000E-03   2.000000E-03   2.000000E-03   2.000000E-03   2.000000E-03   2.000000E-03
   2.000000E-03   2.000000E-03   2.000000E-03   2.000000E-03   2.000000E-03   2.000000E-03   2.000000E-03   2.000000E-03   2.000000E-03   2.000000E-03   2.000000E-03   2.000000E-03   2.000000E-03   2.000000E-03   2.000000E-03   2.000000E-03   2.000000E-03   2.000000E-03   2.000000E-03   2.000000E-03
   2.000000E-03   2.000000E-03   2.000000E-03   2.000000E-03   2.000000E-03   2.000000E-03   2.000000E-03   2.000000E-03   2.000000E-03   2.000000E-03   2.000000E-03   2.000000E-03   2.000000E-03   2.000000E-03   2.000000E-03   2.000000E-03   2.000000E-03   2.000000E-03   2.000000E-03   2.000000E-03
   2.000000E-03   2.000000E-03   2.000000E-03   2.000000E-03   2.000000E-03   2.000000E-03   2.000000E-03   2.000000E-03   2.000000E-03   2.000000E-03   2.000000E-03   2.000000E-03   2.000000E-03   2.000000E-03   2.000000E-03   2.000000E-03   2.000000E-03   2.000000E-03   2.000000E-03   2.000000E-03
   2.000000E-03   2.000000E-03   2.000000E-03   2.000000E-03   2.000000E-03   2.000000E-03   2.000000E-03   2.000000E-03   2.000000E-03   2.000000E-03   2.000000E-03   2.000000E-03   2.000000E-03   2.000000E-03   2.000000E-03   2.000000E-03   2.000000E-03   2.000000E-03   2.000000E-03   2.000000E-03
   2.000000E-03   2.000000E-03   2.000000E-03   2.000000E-03   2.000000E-03   2.000000E-03   2.000000E-03   2.000000E-03   2.000000E-03   2.000000E-03   2.000000E-03   2.000000E-03   2.000000E-03   2.000000E-03   2.000000E-03   2.000000E-03   2.000000E-03   2.000000E-03   2.000000E-03   2.000000E-03
   2.000000E-03   2.000000E-03   2.000000E-03   2.000000E-03   2.000000E-03   2.000000E-03   2.000000E-03   2.000000E-03   2.000000E-03   2.000000E-03   2.000000E-03   2.000000E-03   2.000000E-03   2.000000E-03   2.000000E-03   2.000000E-03   2.000000E-03   2.000000E-03   2.000000E-03   2.000000E-03
   2.000000E-03   2.000000E-03   2.000000E-03   2.000000E-03   2.000000E-03   2.000000E-03   2.000000E-03   2.000000E-03   2.000000E-03   2.000000E-03   2.000000E-03   2.000000E-03   2.000000E-03   2.000000E-03   2.000000E-03   2.000000E-03   2.000000E-03   2.000000E-03   2.000000E-03   2.000000E-03
   2.000000E-03   2.000000E-03   2.000000E-03   2.000000E-03   2.000000E-03   2.000000E-03   2.000000E-03   2.000000E-03   2.000000E-03   2.000000E-03   2.000000E-03   2.000000E-03   2.000000E-03   2.000000E-03   2.000000E-03   2.000000E-03   2.000000E-03   2.000000E-03   2.000000E-03   2.000000E-03
   2.000000E-03   2.000000E-03   2.000000E-03   2.000000E-03   2.000000E-03   2.000000E-03   2.000000E-03   2.000000E-03   2.000000E-03   2.000000E-03   2.000000E-03   2.000000E-03   2.000000E-03   2.000000E-03   2.000000E-03   2.000000E-03   2.000000E-03   2.000000E-03   2.000000E-03   2.000000E-03
   2.000000E-03   2.000000E-03   2.000000E-03   2.000000E-03   2.000000E-03   2.000000E-03   2.000000E-03   2.000000E-03   2.000000E-03   2.000000E-03   2.000000E-03   2.000000E-03   2.000000E-03   2.000000E-03   2.000000E-03   2.000000E-03   2.000000E-03   2.000000E-03   2.000000E-03   2.000000E-03
   2.000000E-03   2.000000E-03   2.000000E-03   2.000000E-03   2.000000E-03   2.000000E-03   2.000000E-03   2.000000E-03   2.000000E-03   2.000000E-03   2.000000E-03   2.000000E-03   2.000000E-03   2.000000E-03   2.000000E-03   2.000000E-03   2.000000E-03   2.000000E-03   2.000000E-03   2.000000E-03
   2.000000E-03   2.000000E-03   2.000000E-03   2.000000E-03   2.000000E-03   2.000000E-03   2.000000E-03   2.000000E-03   2.000000E-03   2.000000E-03   2.000000E-03   2.000000E-03   2.000000E-03   2.000000E-03   2.000000E-03   2.000000E-03   2.000000E-03   2.000000E-03   2.000000E-03   2.000000E-03
   2.000000E-03   2.000000E-03   2.000000E-03   2.000000E-03   2.000000E-03   2.000000E-03   2.000000E-03   2.000000E-03   2.000000E-03   2.000000E-03   2.000000E-03   2.000000E-03   2.000000E-03   2.000000E-03   2.000000E-03   2.000000E-03   2.000000E-03   2.000000E-03   2.000000E-03   2.000000E-03
