# BAS6 package for MODFLOW-2005 generated by Flopy 3.9.3
FREE
INTERNAL               1    (20I10) -1 #ibound layer 1                
        -1        -1        -1        -1        -1        -1        -1        -1        -1        -1        -1        -1        -1        -1        -1        -1        -1        -1        -1        -1
         1         1         1         1         1         1         1         1         1         1         1         1         1         1         1         1         1         1         1         1
         1         1         1         1         1         1         1         1         1         1         1         1         1         1         1         1         1         1         1         1
         1         1         1         1         1         1         1         1         1         1         1         1         1         1         1         1         1         1         1         1
         1         1         1         1         1         1         1         1         1         1         1         1         1         1         1         1         1         1         1         1
         1         1         1         1         1         1         1         1         1         1         1         1         1         1         1         1         1         1         1         1
         1         1         1         1         1         1         1         1         1         1         1         1         1         1         1         1         1         1         1         1
         1         1         1         1         1         1         1         1         1         1         1         1         1         1         1         1         1         1         1         1
         1         1         1         1         1         1         1         1         1         1         1         1         1         1         1         1         1         1         1         1
         1         1         1         1         1         1         1         1         1         1         1         1         1         1         1         1         1         1         1         1
         1         1         1         1         1         1         1         1         1         1         1         1         1         1         1         1         1         1         1         1
         1         1         1         1         1         1         1         1         1         1         1         1         1         1         1         1         1         1         1         1
         1         1         1         1         1         1         1         1         1         1         1         1         1         1         1         1         1         1         1         1
         1         1         1         1         1         1         1         1         1         1         1         1         1         1         1         1         1         1         1         1
         1         1         1         1         1         1         1         1         1         1         1         1         1         1         1         1         1         1         1         1
         1         1         1         1         1         1         1         1         1         1         1         1         1         1         1         1         1         1         1         1
         1         1         1         1         1         1         1         1         1         1         1         1         1         1         1         1         1         1         1         1
         1         1         1         1         1         1         1         1         1         1         1         1         1         1         1         1         1         1         1         1
         1         1         1         1         1         1         1         1         1         1         1         1         1         1         1         1         1         1         1         1
        -1        -1        -1        -1        -1        -1        -1        -1        -1        -1        -1        -1        -1        -1        -1        -1        -1        -1        -1        -1
   -999.99
INTERNAL               1  (20E15.6) -1 #strt layer 1                  
   1.000000E+02   1.000000E+02   1.000000E+02   1.000000E+02   1.000000E+02   1.000000E+02   1.000000E+02   1.000000E+02   1.000000E+02   1.000000E+02   1.000000E+02   1.000000E+02   1.000000E+02   1.000000E+02   1.000000E+02   1.000000E+02   1.000000E+02   1.000000E+02   1.000000E+02   1.000000E+02
   9.950000E+01   9.950000E+01   9.950000E+01   9.950000E+01   9.950000E+01   9.950000E+01   9.950000E+01   9.950000E+01   9.950000E+01   9.950000E+01   9.950000E+01   9.950000E+01   9.950000E+01   9.950000E+01   9.950000E+01   9.950000E+01   9.950000E+01   9.950000E+01   9.950000E+01   9.950000E+01
   9.900000E+01   9.900000E+01   9.900000E+01   9.900000E+01   9.900000E+01   9.900000E+01   9.900000E+01   9.900000E+01   9.900000E+01   9.900000E+01   9.900000E+01   9.900000E+01   9.900000E+01   9.900000E+01   9.900000E+01   9.900000E+01   9.900000E+01   9.900000E+01   9.900000E+01   9.900000E+01
   9.850000E+01   9.850000E+01   9.850000E+01   9.850000E+01   9.850000E+01   9.850000E+01   9.850000E+01   9.850000E+01   9.850000E+01   9.850000E+01   9.850000E+01   9.850000E+01   9.850000E+01   9.850000E+01   9.850000E+01   9.850000E+01   9.850000E+01   9.850000E+01   9.850000E+01   9.850000E+01
   9.800000E+01   9.800000E+01   9.800000E+01   9.800000E+01   9.800000E+01   9.800000E+01   9.800000E+01   9.800000E+01   9.800000E+01   9.800000E+01   9.800000E+01   9.800000E+01   9.800000E+01   9.800000E+01   9.800000E+01   9.800000E+01   9.800000E+01   9.800000E+01   9.800000E+01   9.800000E+01
   9.750000E+01   9.750000E+01   9.750000E+01   9.750000E+01   9.750000E+01   9.750000E+01   9.750000E+01   9.750000E+01   9.750000E+01   9.750000E+01   9.750000E+01   9.750000E+01   9.750000E+01   9.750000E+01   9.750000E+01   9.750000E+01   9.750000E+01   9.750000E+01   9.750000E+01   9.750000E+01
   9.700000E+01   9.700000E+01   9.700000E+01   9.700000E+01   9.700000E+01   9.700000E+01   9.700000E+01   9.700000E+01   9.700000E+01   9.700000E+01   9.700000E+01   9.700000E+01   9.700000E+01   9.700000E+01   9.700000E+01   9.700000E+01   9.700000E+01   9.700000E+01   9.700000E+01   9.700000E+01
   9.650000E+01   9.650000E+01   9.650000E+01   9.650000E+01   9.650000E+01   9.650000E+01   9.650000E+01   9.650000E+01   9.650000E+01   9.650000E+01   9.650000E+01   9.650000E+01   9.650000E+01   9.650000E+01   9.650000E+01   9.650000E+01   9.650000E+01   9.650000E+01   9.650000E+01   9.650000E+01
   9.600000E+01   9.600000E+01   9.600000E+01   9.600000E+01   9.600000E+01   9.600000E+01   9.600000E+01   9.600000E+01   9.600000E+01   9.600000E+01   9.600000E+01   9.600000E+01   9.600000E+01   9.600000E+01   9.600000E+01   9.600000E+01   9.600000E+01   9.600000E+01   9.600000E+01   9.600000E+01
   9.550000E+01   9.550000E+01   9.550000E+01   9.550000E+01   9.550000E+01   9.550000E+01   9.550000E+01   9.550000E+01   9.550000E+01   9.550000E+01   9.550000E+01   9.550000E+01   9.550000E+01   9.550000E+01   9.550000E+01   9.550000E+01   9.550000E+01   9.550000E+01   9.550000E+01   9.550000E+01
   9.500000E+01   9.500000E+01   9.500000E+01   9.500000E+01   9.500000E+01   9.500000E+01   9.500000E+01   9.500000E+01   9.500000E+01   9.500000E+01   9.500000E+01   9.500000E+01   9.500000E+01   9.500000E+01   9.500000E+01   9.500000E+01   9.500000E+01   9.500000E+01   9.500000E+01   9.500000E+01
   9.450000E+01   9.450000E+01   9.450000E+01   9.450000E+01   9.450000E+01   9.450000E+01   9.450000E+01   9.450000E+01   9.450000E+01   9.450000E+01   9.450000E+01   9.450000E+01   9.450000E+01   9.450000E+01   9.450000E+01   9.450000E+01   9.450000E+01   9.450000E+01   9.450000E+01   9.450000E+01
   9.400000E+01   9.400000E+01   9.400000E+01   9.400000E+01   9.400000E+01   9.400000E+01   9.400000E+01   9.400000E+01   9.400000E+01   9.400000E+01   9.400000E+01   9.400000E+01   9.400000E+01   9.400000E+01   9.400000E+01   9.400000E+01   9.400000E+01   9.400000E+01   9.400000E+01   9.400000E+01
   9.350000E+01   9.350000E+01   9.350000E+01   9.350000E+01   9.350000E+01   9.350000E+01   9.350000E+01   9.350000E+01   9.350000E+01   9.350000E+01   9.350000E+01   9.350000E+01   9.350000E+01   9.350000E+01   9.350000E+01   9.350000E+01   9.350000E+01   9.350000E+01   9.350000E+01   9.350000E+01
   9.300000E+01   9.300000E+01   9.300000E+01   9.300000E+01   9.300000E+01   9.300000E+01   9.300000E+01   9.300000E+01   9.300000E+01   9.300000E+01   9.300000E+01   9.300000E+01   9.300000E+01   9.300000E+01   9.300000E+01   9.300000E+01   9.300000E+01   9.300000E+01   9.300000E+01   9.300000E+01
   9.250000E+01   9.250000E+01   9.250000E+01   9.250000E+01   9.250000E+01   9.250000E+01   9.250000E+01   9.250000E+01   9.250000E+01   9.250000E+01   9.250000E+01   9.250000E+01   9.250000E+01   9.250000E+01   9.250000E+01   9.250000E+01   9.250000E+01   9.250000E+01   9.250000E+01   9.250000E+01
   9.200000E+01   9.200000E+01   9.200000E+01   9.200000E+01   9.200000E+01   9.200000E+01   9.200000E+01   9.200000E+01   9.200000E+01   9.200000E+01   9.200000E+01   9.200000E+01   9.200000E+01   9.200000E+01   9.200000E+01   9.200000E+01   9.200000E+01   9.200000E+01   9.200000E+01   9.200000E+01
   9.150000E+01   9.150000E+01   9.150000E+01   9.150000E+01   9.150000E+01   9.150000E+01   9.150000E+01   9.150000E+01   9.150000E+01   9.150000E+01   9.150000E+01   9.150000E+01   9.150000E+01   9.150000E+01   9.150000E+01   9.150000E+01   9.150000E+01   9.150000E+01   9.150000E+01   9.150000E+01
   9.100000E+01   9.100000E+01   9.100000E+01   9.100000E+01   9.100000E+01   9.100000E+01   9.100000E+01   9.100000E+01   9.100000E+01   9.100000E+01   9.100000E+01   9.100000E+01   9.100000E+01   9.100000E+01   9.100000E+01   9.100000E+01   9.100000E+01   9.100000E+01   9.100000E+01   9.100000E+01
   9.050000E+01   9.050000E+01   9.050000E+01   9.050000E+01   9.050000E+01   9.050000E+01   9.050000E+01   9.050000E+01   9.050000E+01   9.050000E+01   9.050000E+01   9.050000E+01   9.050000E+01   9.050000E+01   9.050000E+01   9.050000E+01   9.050000E+01   9.050000E+01   9.050000E+01   9.050000E+01
