# Name file for MODFLOW-2005, generated by Flopy version 3.9.3.
#xll:0.0; yll:0.0; rotation:0.0; units:meters; lenuni:2; start_datetime:1-1-1970
LIST               2  structured.list
DIS               11  structured.dis
BAS6              13  structured.bas
LPF               15  structured.lpf
RCH               19  structured.rch
OC                14  structured.oc
PCG               27  structured.pcg
DATA(BINARY)      53  structured.cbc REPLACE
DATA(BINARY)      51  structured.hds REPLACE
