5 50 -999.0 # HYD package for MODFLOW-2005 generated by Flopy 3.9.3
BAS HD I 2 250.0 750.0 OBS_1 
BAS HD I 3 550.0 550.0 WELL_OBS 
BAS DD I 3 550.0 550.0 WELL_DD 
BAS HD C 2 450.0 450.0 CELL_HD1 
BAS HD I 4 350.0 650.0 OBS_L3 
