# Name file for MODFLOW-2005, generated by Flopy version 3.9.3.
#xll:0.0; yll:0.0; rotation:0.0; units:meters; lenuni:2; start_datetime:1-1-1970
LIST               2  hydmod_model.list
DIS               11  hydmod_model.dis
LPF               15  hydmod_model.lpf
BAS6              13  hydmod_model.bas
CHD               24  hydmod_model.chd
WEL               20  hydmod_model.wel
PCG               27  hydmod_model.pcg
HYD               36  hydmod_model.hyd
OC                14  hydmod_model.oc
DATA(BINARY)      50  hydmod_model.hyd.bin REPLACE
DATA(BINARY)      51  hydmod_model.hds REPLACE
