# SFR package for MODFLOW-2005 generated by Flopy 3.9.3
2 1 0 0 86400.00000000 0.00010000 53 0 
1 3 2 1 1 100.0
1 3 3 1 2 100.0
1 0 0
1 0 0 0 1e-06 0 0 0 
94.8 1.0 0 0 0 
94.8 1.0 0 0 0 
