# Name file for MODFLOW-NWT, generated by Flopy version 3.9.3.
#xll:0.0; yll:0.0; rotation:0.0; units:meters; lenuni:2; start_datetime:1-1-1970
LIST               2  sfr_converged.list
DIS               11  sfr_converged.dis
BAS6              13  sfr_converged.bas
UPW               31  sfr_converged.upw
SFR               17  sfr_converged.sfr
NWT               32  sfr_converged.nwt
OC                14  sfr_converged.oc
DATA(BINARY)      51  sfr_converged.hds REPLACE
