# SFR package for MODFLOW-NWT generated by Flopy 3.9.3
3 1 0 0 86400.00000000 0.00010000 0 0 
1 6 4 1 1 100.0
1 6 5 1 2 100.0
1 6 6 1 3 100.0
1 0 0
1 0 0 0 0.01 0 0 0 
94.4 0 0 0 0 
94.2 0 0 0 0 
