# Name file for MODFLOW-2005, generated by Flopy version 3.9.3.
#xll:0.0; yll:0.0; rotation:0.0; units:meters; lenuni:2; start_datetime:1-1-1970
LIST               2  basic_model.list
DIS               11  basic_model.dis
BAS6              13  basic_model.bas
LPF               15  basic_model.lpf
WEL               20  basic_model.wel
OC                14  basic_model.oc
PCG               27  basic_model.pcg
DATA(BINARY)      51  basic_model.hds REPLACE
