# File generated by Flopy version 3.9.3 on 08/08/2025 at 09:11:31.
BEGIN options
  auxiliary  ANGLDEGX  CDIST
END options

BEGIN dimensions
  NEXG  10
END dimensions

BEGIN exchangedata
  1 1 5  1 1 1  1      50.00000000      50.00000000     100.00000000       0.00000000     100.00000000
  1 2 5  1 2 1  1      50.00000000      50.00000000     100.00000000       0.00000000     100.00000000
  1 3 5  1 3 1  1      50.00000000      50.00000000     100.00000000       0.00000000     100.00000000
  1 4 5  1 4 1  1      50.00000000      50.00000000     100.00000000       0.00000000     100.00000000
  1 5 5  1 5 1  1      50.00000000      50.00000000     100.00000000       0.00000000     100.00000000
  1 6 5  1 6 1  1      50.00000000      50.00000000     100.00000000       0.00000000     100.00000000
  1 7 5  1 7 1  1      50.00000000      50.00000000     100.00000000       0.00000000     100.00000000
  1 8 5  1 8 1  1      50.00000000      50.00000000     100.00000000       0.00000000     100.00000000
  1 9 5  1 9 1  1      50.00000000      50.00000000     100.00000000       0.00000000     100.00000000
  1 10 5  1 10 1  1      50.00000000      50.00000000     100.00000000       0.00000000     100.00000000
END exchangedata

