# File generated by Flopy version 3.9.3 on 08/08/2025 at 09:11:31.
BEGIN options
  XORIGIN     500.00000000
  YORIGIN       0.00000000
END options

BEGIN dimensions
  NLAY  1
  NROW  10
  NCOL  5
END dimensions

BEGIN griddata
  delr
    INTERNAL  FACTOR  1.0
       100.00000000     100.00000000     100.00000000     100.00000000     100.00000000
  delc
    INTERNAL  FACTOR  1.0
       100.00000000     100.00000000     100.00000000     100.00000000     100.00000000
       100.00000000     100.00000000     100.00000000     100.00000000     100.00000000
  top
    CONSTANT      50.00000000
  botm
    CONSTANT       0.00000000
  idomain
    INTERNAL  FACTOR  1
    1  1  1  1  1
    1  1  1  1  1
    1  1  1  1  1
    1  1  1  1  1
    1  1  1  1  1
    1  1  1  1  1
    1  1  1  1  1
    1  1  1  1  1
    1  1  1  1  1
    1  1  1  1  1
END griddata

