# File generated by Flopy version 3.9.3 on 08/07/2025 at 16:12:35.
BEGIN options
END options

BEGIN dimensions
  MAXBOUND  2
END dimensions

BEGIN period  1
  1 8 3 -1.50000000E+02
END period  1

