# File generated by Flopy version 3.9.3 on 08/07/2025 at 16:12:35.
BEGIN options
END options

BEGIN dimensions
  MAXBOUND  20
END dimensions

BEGIN period  1
  1 1 5 4.00000000E+01
  1 2 5 4.00000000E+01
  1 3 5 4.00000000E+01
  1 4 5 4.00000000E+01
  1 5 5 4.00000000E+01
  1 6 5 4.00000000E+01
  1 7 5 4.00000000E+01
  1 8 5 4.00000000E+01
  1 9 5 4.00000000E+01
  1 10 5 4.00000000E+01
END period  1

