# File generated by Flopy version 3.9.3 on 08/07/2025 at 16:12:35.
BEGIN options
  SAVE_FLOWS
END options

BEGIN packages
  DIS6  splitter_model_1.dis  dis
  IC6  splitter_model_1.ic  ic
  NPF6  splitter_model_1.npf  npf
  CHD6  splitter_model_1.chd  chd_0
  WEL6  splitter_model_1.wel  wel_0
  OC6  splitter_model_1.oc  oc
END packages

