# Name file for MODFLOW-2005, generated by Flopy version 3.9.3.
#xll:0.0; yll:0.0; rotation:0.0; units:meters; lenuni:2; start_datetime:1-1-1970
LIST               2  demo2005.list
DIS               11  demo2005.dis
BAS6              13  demo2005.bas
LPF               15  demo2005.lpf
WEL               20  demo2005.wel
CHD               24  demo2005.chd
PCG               27  demo2005.pcg
OC                14  demo2005.oc
DATA(BINARY)      51  demo2005.hds REPLACE
