# File generated by Flopy version 3.9.3 on 08/08/2025 at 18:27:37.
BEGIN options
END options

BEGIN dimensions
  MAXBOUND  1
END dimensions

BEGIN period  1
  1 1 1 4.50000000E+00
END period  1

