# File generated by Flopy version 3.9.3 on 08/08/2025 at 18:27:37.
BEGIN options
END options

BEGIN packages
  DIS6  geospatial_demo.dis  dis
  NPF6  geospatial_demo.npf  npf
  IC6  geospatial_demo.ic  ic
  CHD6  geospatial_demo.chd  chd_0
  OC6  geospatial_demo.oc  oc
END packages

