# File generated by Flopy version 3.9.3 on 08/08/2025 at 18:27:37.
BEGIN options
  HEAD  FILEOUT  geospatial_demo.hds
END options

BEGIN period  1
  SAVE  HEAD  ALL
END period  1

