# File generated by Flopy version 3.9.3 on 08/08/2025 at 18:27:37.
BEGIN options
END options

BEGIN timing
  TDIS6  geospatial_demo.tdis
END timing

BEGIN models
  gwf6  geospatial_demo.nam  geospatial_demo
END models

BEGIN exchanges
END exchanges

BEGIN solutiongroup  1
  ims6  geospatial_demo.ims  geospatial_demo
END solutiongroup  1

