# Name file for MODFLOW-2005, generated by Flopy version 3.9.3.
#xll:0.0; yll:0.0; rotation:0.0; units:meters; lenuni:2; start_datetime:1-1-1970
LIST               2  lak_demo.list
DIS               11  lak_demo.dis
BAS6              13  lak_demo.bas
LPF               15  lak_demo.lpf
LAK              119  lak_demo.lak
OC                14  lak_demo.oc
PCG               27  lak_demo.pcg
DATA(BINARY)      53  lak_demo.cbc REPLACE
DATA(BINARY)      51  lak_demo.hds REPLACE
