# DIS package for MODFLOW-2005 generated by Flopy 3.9.3
         1         7         7         1         4         2
  0
CONSTANT    1.000000E+02                           #delr                          
CONSTANT    1.000000E+02                           #delc                          
CONSTANT    1.050000E+02                           #model_top                     
CONSTANT    0.000000E+00                           #botm layer 1                  
      1.000000             1  1.000000  SS
