# LAK package for MODFLOW-2005 generated by Flopy 3.9.3
1 53 
-1.0 0 0.0 0.0 
100.5 -10000.0 10000.0 
1 1 0   # Stress period 1
INTERNAL               1     (7I10) -1 #lakarr__period1 layer 1       
         0         0         0         0         0         0         0
         0         0         0         0         0         0         0
         0         0         1         1         1         0         0
         0         0         1         1         1         0         0
         0         0         1         1         1         0         0
         0         0         0         0         0         0         0
         0         0         0         0         0         0         0
CONSTANT    1.000000E-02                           #bdlknc__period1 layer 1       
0   # Data set 7
1 0.0 0.0 0.0   # Data set 9a
