# DIS package for MODFLOW-2005 generated by Flopy 3.9.3
         3        10        10         3         4         2
  0  0  0
CONSTANT    1.000000E+02                           #delr                          
CONSTANT    1.000000E+02                           #delc                          
CONSTANT    1.000000E+02                           #model_top                     
CONSTANT    7.500000E+01                           #botm layer 1                  
CONSTANT    5.000000E+01                           #botm layer 2                  
CONSTANT    2.500000E+01                           #botm layer 3                  
      1.000000             1  1.000000  SS
    100.000000            10  1.000000  TR
    100.000000            10  1.000000  TR
