# CHD package for MODFLOW-2005 generated by Flopy 3.9.3
        60
        60         0 # stress period 1
         1         1         1           100.0           100.0
         2         1         1           100.0           100.0
         3         1         1           100.0           100.0
         1         2         1           100.0           100.0
         2         2         1           100.0           100.0
         3         2         1           100.0           100.0
         1         3         1           100.0           100.0
         2         3         1           100.0           100.0
         3         3         1           100.0           100.0
         1         4         1           100.0           100.0
         2         4         1           100.0           100.0
         3         4         1           100.0           100.0
         1         5         1           100.0           100.0
         2         5         1           100.0           100.0
         3         5         1           100.0           100.0
         1         6         1           100.0           100.0
         2         6         1           100.0           100.0
         3         6         1           100.0           100.0
         1         7         1           100.0           100.0
         2         7         1           100.0           100.0
         3         7         1           100.0           100.0
         1         8         1           100.0           100.0
         2         8         1           100.0           100.0
         3         8         1           100.0           100.0
         1         9         1           100.0           100.0
         2         9         1           100.0           100.0
         3         9         1           100.0           100.0
         1        10         1           100.0           100.0
         2        10         1           100.0           100.0
         3        10         1           100.0           100.0
         1         1        10            90.0            90.0
         2         1        10            90.0            90.0
         3         1        10            90.0            90.0
         1         2        10            90.0            90.0
         2         2        10            90.0            90.0
         3         2        10            90.0            90.0
         1         3        10            90.0            90.0
         2         3        10            90.0            90.0
         3         3        10            90.0            90.0
         1         4        10            90.0            90.0
         2         4        10            90.0            90.0
         3         4        10            90.0            90.0
         1         5        10            90.0            90.0
         2         5        10            90.0            90.0
         3         5        10            90.0            90.0
         1         6        10            90.0            90.0
         2         6        10            90.0            90.0
         3         6        10            90.0            90.0
         1         7        10            90.0            90.0
         2         7        10            90.0            90.0
         3         7        10            90.0            90.0
         1         8        10            90.0            90.0
         2         8        10            90.0            90.0
         3         8        10            90.0            90.0
         1         9        10            90.0            90.0
         2         9        10            90.0            90.0
         3         9        10            90.0            90.0
         1        10        10            90.0            90.0
         2        10        10            90.0            90.0
         3        10        10            90.0            90.0
        60         0 # stress period 2
         1         1         1           100.0           100.0
         2         1         1           100.0           100.0
         3         1         1           100.0           100.0
         1         2         1           100.0           100.0
         2         2         1           100.0           100.0
         3         2         1           100.0           100.0
         1         3         1           100.0           100.0
         2         3         1           100.0           100.0
         3         3         1           100.0           100.0
         1         4         1           100.0           100.0
         2         4         1           100.0           100.0
         3         4         1           100.0           100.0
         1         5         1           100.0           100.0
         2         5         1           100.0           100.0
         3         5         1           100.0           100.0
         1         6         1           100.0           100.0
         2         6         1           100.0           100.0
         3         6         1           100.0           100.0
         1         7         1           100.0           100.0
         2         7         1           100.0           100.0
         3         7         1           100.0           100.0
         1         8         1           100.0           100.0
         2         8         1           100.0           100.0
         3         8         1           100.0           100.0
         1         9         1           100.0           100.0
         2         9         1           100.0           100.0
         3         9         1           100.0           100.0
         1        10         1           100.0           100.0
         2        10         1           100.0           100.0
         3        10         1           100.0           100.0
         1         1        10            90.0            90.0
         2         1        10            90.0            90.0
         3         1        10            90.0            90.0
         1         2        10            90.0            90.0
         2         2        10            90.0            90.0
         3         2        10            90.0            90.0
         1         3        10            90.0            90.0
         2         3        10            90.0            90.0
         3         3        10            90.0            90.0
         1         4        10            90.0            90.0
         2         4        10            90.0            90.0
         3         4        10            90.0            90.0
         1         5        10            90.0            90.0
         2         5        10            90.0            90.0
         3         5        10            90.0            90.0
         1         6        10            90.0            90.0
         2         6        10            90.0            90.0
         3         6        10            90.0            90.0
         1         7        10            90.0            90.0
         2         7        10            90.0            90.0
         3         7        10            90.0            90.0
         1         8        10            90.0            90.0
         2         8        10            90.0            90.0
         3         8        10            90.0            90.0
         1         9        10            90.0            90.0
         2         9        10            90.0            90.0
         3         9        10            90.0            90.0
         1        10        10            90.0            90.0
         2        10        10            90.0            90.0
         3        10        10            90.0            90.0
        60         0 # stress period 3
         1         1         1           100.0           100.0
         2         1         1           100.0           100.0
         3         1         1           100.0           100.0
         1         2         1           100.0           100.0
         2         2         1           100.0           100.0
         3         2         1           100.0           100.0
         1         3         1           100.0           100.0
         2         3         1           100.0           100.0
         3         3         1           100.0           100.0
         1         4         1           100.0           100.0
         2         4         1           100.0           100.0
         3         4         1           100.0           100.0
         1         5         1           100.0           100.0
         2         5         1           100.0           100.0
         3         5         1           100.0           100.0
         1         6         1           100.0           100.0
         2         6         1           100.0           100.0
         3         6         1           100.0           100.0
         1         7         1           100.0           100.0
         2         7         1           100.0           100.0
         3         7         1           100.0           100.0
         1         8         1           100.0           100.0
         2         8         1           100.0           100.0
         3         8         1           100.0           100.0
         1         9         1           100.0           100.0
         2         9         1           100.0           100.0
         3         9         1           100.0           100.0
         1        10         1           100.0           100.0
         2        10         1           100.0           100.0
         3        10         1           100.0           100.0
         1         1        10            90.0            90.0
         2         1        10            90.0            90.0
         3         1        10            90.0            90.0
         1         2        10            90.0            90.0
         2         2        10            90.0            90.0
         3         2        10            90.0            90.0
         1         3        10            90.0            90.0
         2         3        10            90.0            90.0
         3         3        10            90.0            90.0
         1         4        10            90.0            90.0
         2         4        10            90.0            90.0
         3         4        10            90.0            90.0
         1         5        10            90.0            90.0
         2         5        10            90.0            90.0
         3         5        10            90.0            90.0
         1         6        10            90.0            90.0
         2         6        10            90.0            90.0
         3         6        10            90.0            90.0
         1         7        10            90.0            90.0
         2         7        10            90.0            90.0
         3         7        10            90.0            90.0
         1         8        10            90.0            90.0
         2         8        10            90.0            90.0
         3         8        10            90.0            90.0
         1         9        10            90.0            90.0
         2         9        10            90.0            90.0
         3         9        10            90.0            90.0
         1        10        10            90.0            90.0
         2        10        10            90.0            90.0
         3        10        10            90.0            90.0
