# Name file for MODFLOW-2005, generated by Flopy version 3.9.3.
#xll:0.0; yll:0.0; rotation:0.0; units:meters; lenuni:2; start_datetime:1-1-1970
LIST               2  plot_demo.list
DIS               11  plot_demo.dis
BAS6              13  plot_demo.bas
LPF               15  plot_demo.lpf
WEL               20  plot_demo.wel
CHD               24  plot_demo.chd
OC                14  plot_demo.oc
PCG               27  plot_demo.pcg
DATA(BINARY)      53  plot_demo.cbc REPLACE
DATA(BINARY)      51  plot_demo.hds REPLACE
