# WEL package for MODFLOW-2005 generated by Flopy 3.9.3
         6        53 
         6         0 # stress period 1
         1         3         3          -500.0
         1         8         8          -300.0
         2         3         3          -500.0
         2         8         8          -300.0
         3         3         3          -500.0
         3         8         8          -300.0
         6         0 # stress period 2
         1         3         3          -500.0
         1         8         8          -300.0
         2         3         3          -500.0
         2         8         8          -300.0
         3         3         3          -500.0
         3         8         8          -300.0
         6         0 # stress period 3
         1         3         3          -500.0
         1         8         8          -300.0
         2         3         3          -500.0
         2         8         8          -300.0
         3         3         3          -500.0
         3         8         8          -300.0
