# DIS package for MODFLOW-2005 generated by Flopy 3.9.3
         3        10        10         1         4         2
  0  0  0
CONSTANT    1.000000E+00                           #delr                          
CONSTANT    1.000000E+00                           #delc                          
CONSTANT    1.000000E+00                           #model_top                     
CONSTANT    6.700000E-01                           #botm layer 1                  
CONSTANT    3.300000E-01                           #botm layer 2                  
CONSTANT    0.000000E+00                           #botm layer 3                  
      1.000000             1  1.000000  SS
