# Name file for MODFLOW-2005, generated by Flopy version 3.9.3.
#xll:0.0; yll:0.0; rotation:0.0; units:meters; lenuni:2; start_datetime:1-1-1970
LIST               2  mfusg_model.list
DIS               11  mfusg_model.dis
BAS6              13  mfusg_model.bas
LPF               15  mfusg_model.lpf
OC                14  mfusg_model.oc
DATA(BINARY)      51  mfusg_model.hds REPLACE
