# BAS6 package for MODFLOW-USG generated by Flopy 3.9.3
FREE
CONSTANT          1                                #ibound layer 1                
CONSTANT          1                                #ibound layer 2                
   -999.99
CONSTANT    1.000000E+00                           #strt layer 1                  
CONSTANT    1.000000E+00                           #strt layer 2                  
