# Name file for MODFLOW-USG, generated by Flopy version 3.9.3.
#xll:0.0; yll:0.0; rotation:0.0; units:meters; lenuni:2; start_datetime:1-1-1970
LIST               2  simple_mfusg.list
DIS               11  simple_mfusg.dis
BAS6              13  simple_mfusg.bas
LPF               15  simple_mfusg.lpf
CHD               24  simple_mfusg.chd
SMS               32  simple_mfusg.sms
OC                14  simple_mfusg.oc
DATA(BINARY)      51  simple_mfusg.hds REPLACE
