# CHD package for MODFLOW-USG generated by Flopy 3.9.3
         1
         1         0 # stress period 1
         1         1         1            10.0            10.0
