# Name file for MODFLOW-2005, generated by Flopy version 3.9.3.
#xll:0.0; yll:0.0; rotation:0.0; units:meters; lenuni:2; start_datetime:1-1-1970
LIST               2  grid_demo.list
DIS               11  grid_demo.dis
BAS6              13  grid_demo.bas
LPF               15  grid_demo.lpf
RCH               19  grid_demo.rch
OC                14  grid_demo.oc
PCG               27  grid_demo.pcg
DATA(BINARY)      53  grid_demo.cbc REPLACE
DATA(BINARY)      51  grid_demo.hds REPLACE
