# RCH package for MODFLOW-2005 generated by Flopy 3.9.3
         3        53
         1        -1 # Stress period 1
INTERNAL               1  (10E15.6) -1 #rech_1                        
   1.000000E-03   1.000000E-03   1.000000E-03   1.000000E-03   1.000000E-03   1.000000E-03   1.000000E-03   1.000000E-03   1.000000E-03   1.000000E-03
   1.000000E-03   1.000000E-03   1.000000E-03   1.000000E-03   1.000000E-03   1.000000E-03   1.000000E-03   1.000000E-03   1.000000E-03   1.000000E-03
   1.000000E-03   1.000000E-03   1.000000E-03   1.000000E-03   1.000000E-03   1.000000E-03   1.000000E-03   1.000000E-03   1.000000E-03   1.000000E-03
   1.000000E-03   1.000000E-03   1.000000E-03   1.000000E-03   1.000000E-03   1.000000E-03   1.000000E-03   1.000000E-03   1.000000E-03   1.000000E-03
   1.000000E-03   1.000000E-03   1.000000E-03   1.000000E-03   1.000000E-03   1.000000E-03   1.000000E-03   1.000000E-03   1.000000E-03   1.000000E-03
   1.000000E-03   1.000000E-03   1.000000E-03   1.000000E-03   1.000000E-03   1.000000E-03   1.000000E-03   1.000000E-03   1.000000E-03   1.000000E-03
   1.000000E-03   1.000000E-03   1.000000E-03   1.000000E-03   1.000000E-03   1.000000E-03   1.000000E-03   1.000000E-03   1.000000E-03   1.000000E-03
   1.000000E-03   1.000000E-03   1.000000E-03   1.000000E-03   1.000000E-03   1.000000E-03   1.000000E-03   1.000000E-03   1.000000E-03   1.000000E-03
   1.000000E-03   1.000000E-03   1.000000E-03   1.000000E-03   1.000000E-03   1.000000E-03   1.000000E-03   1.000000E-03   1.000000E-03   1.000000E-03
   1.000000E-03   1.000000E-03   1.000000E-03   1.000000E-03   1.000000E-03   1.000000E-03   1.000000E-03   1.000000E-03   1.000000E-03   1.000000E-03
