# DIS package for MODFLOW-2005 generated by Flopy 3.9.3
         2        15        20         5         4         2
  0  0
INTERNAL               1  (20E15.6) -1 #delr                          
   1.000000E+02   1.000000E+02   1.000000E+02   1.000000E+02   1.000000E+02   1.000000E+02   1.000000E+02   1.000000E+02   1.000000E+02   1.000000E+02   1.000000E+02   1.000000E+02   1.000000E+02   1.000000E+02   1.000000E+02   1.000000E+02   1.000000E+02   1.000000E+02   1.000000E+02   1.000000E+02
INTERNAL               1  (15E15.6) -1 #delc                          
   1.000000E+02   1.000000E+02   1.000000E+02   1.000000E+02   1.000000E+02   1.000000E+02   1.000000E+02   1.000000E+02   1.000000E+02   1.000000E+02   1.000000E+02   1.000000E+02   1.000000E+02   1.000000E+02   1.000000E+02
CONSTANT    5.000000E+01                           #model_top                     
CONSTANT    2.000000E+01                           #botm layer 1                  
CONSTANT    0.000000E+00                           #botm layer 2                  
    365.000000             1  1.000000  SS
    365.000000            12  1.000000  TR
    365.000000            12  1.000000  TR
    365.000000             4  1.000000  TR
    365.000000             1  1.000000  SS
