# WEL package for MODFLOW-2005 generated by Flopy 3.9.3
         2         0 
         0         0 # stress period 1
         1         0 # stress period 2
         1         8        11         -1000.0
         2         0 # stress period 3
         1         8        11         -1500.0
         1         6        16          -800.0
         2         0 # stress period 4
         1         8        11         -2000.0
         1         6        16         -1200.0
         1         0 # stress period 5
         1         8        11          -500.0
