# Name file for MODFLOW-2005, generated by Flopy version 3.9.3.
#xll:0.0; yll:0.0; rotation:0.0; units:meters; lenuni:2; start_datetime:1-1-1970
LIST               2  oc_demo.list
DIS               11  oc_demo.dis
BAS6              13  oc_demo.bas
LPF               15  oc_demo.lpf
WEL               20  oc_demo.wel
OC                30  oc_demo.hds
PCG               27  oc_demo.pcg
DATA              31  oc_demo.cbc
