# OC package for MODFLOW-2005 generated by Flopy 3.9.3
HEAD PRINT FORMAT   0
HEAD SAVE FORMAT (10G13.6)            LABEL
HEAD SAVE UNIT    31
DRAWDOWN PRINT FORMAT   0
COMPACT BUDGET AUX

period 1 step 1 
  save head
  save budget
  print head
  print budget

period 2 step 3 
  save head
  save budget

period 2 step 6 
  save head
  save budget
  print head

period 2 step 9 
  save head
  save budget

period 2 step 12 
  save head
  save budget
  print head
  print budget

period 3 step 3 
  save head
  save budget

period 3 step 6 
  save head
  save budget

period 3 step 9 
  save head
  save budget

period 3 step 12 
  save head
  save budget
  print budget

period 4 step 1 
  save head
  save budget

period 4 step 2 
  save head
  save budget

period 4 step 3 
  save head
  save budget

period 4 step 4 
  save head
  save budget
  print head

period 5 step 1 
  save head
  save budget
  print head
  print budget

