# File generated by Flopy version 3.9.3 on 08/07/2025 at 16:14:22.
BEGIN options
END options

BEGIN timing
  TDIS6  modeltime_mf6.tdis
END timing

BEGIN models
  gwf6  time_demo.nam  time_demo
END models

BEGIN exchanges
END exchanges

BEGIN solutiongroup  1
  ims6  modeltime_mf6.ims  time_demo
END solutiongroup  1

