# File generated by Flopy version 3.9.3 on 08/08/2025 at 09:11:32.
BEGIN options
  TIME_UNITS  days
  START_DATE_TIME  2024-01-01t00:00:00
END options

BEGIN dimensions
  NPER  12
END dimensions

BEGIN perioddata
      31.00000000  5       1.00000000
      28.00000000  4       1.00000000
      31.00000000  5       1.00000000
      30.00000000  5       1.00000000
      31.00000000  5       1.00000000
      30.00000000  5       1.00000000
      31.00000000  5       1.00000000
      31.00000000  5       1.00000000
      30.00000000  5       1.00000000
      31.00000000  5       1.00000000
      30.00000000  5       1.00000000
      31.00000000  5       1.00000000
END perioddata

