# File generated by Flopy version 3.9.3 on 08/07/2025 at 16:14:22.
BEGIN options
  SAVE_FLOWS
END options

BEGIN packages
  DIS6  time_demo.dis  dis
  IC6  time_demo.ic  ic
  NPF6  time_demo.npf  npf
  STO6  time_demo.sto  sto
  OC6  time_demo.oc  oc
END packages

