# File generated by Flopy version 3.9.3 on 08/08/2025 at 09:11:32.
BEGIN options
  BUDGET  FILEOUT  time_demo.cbc
  HEAD  FILEOUT  time_demo.hds
END options

BEGIN period  1
  SAVE  HEAD  ALL
  SAVE  BUDGET  ALL
END period  1

