# BAS6 package for MODFLOW-2005 generated by Flopy 3.9.3
FREE
INTERNAL               1    (15I10) -1 #ibound layer 1                
         0         0         1         1         1         1         1         1         1         1         1         1         1         1         1
         0         0         1         1         1         1         1         1         1         1         1         1         1         1         1
         1         1         1         1         1         1         1         1         1         1         1         1         1         1         1
         1         1         1         1         1         1         1         1         1         1         1         1         1         1         1
         1         1         1         1         1         1         1         1         1         1         1         1         1         1         1
         1         1         1         1         1         1         1         1         1         1         1         1         1         1         1
         1         1         1         1         1         1         1         1         1         1         1         1         1         1         1
         1         1         1         1         1         1         1         1         1         1         1         1         1         1         1
         1         1         1         1         1         1         1         1         1         1         1         1         1         1         1
         1         1         1         1         1         1         1         1         1         1         1         1         1         1         1
         1         1         1         1         1         1         1         1         1         1         1         1         1         1         1
         1         1         1         1         1         1         1         1         1         1         1         1         1         1         1
         1         1         1         1         1         1         1         1         1         1         1         1         1         1         1
         1         1         1         1         1         1         1         1         1         1         1         1         1         1         1
         1         1         1         1         1         1         1         1         1         1         1         1         1         1         1
INTERNAL               1    (15I10) -1 #ibound layer 2                
         1         1         1         1         1         1         1         1         1         1         1         1         1         1         1
         1         1         1         1         1         1         1         1         1         1         1         1         1         1         1
         1         1         1         1         1         1         1         1         1         1         1         1         1         1         1
         1         1         1         1         1         1         1         1         1         1         1         1         1         1         1
         1         1         1         1         1         1         1         1         1         1         1         1         1         1         1
         1         1         1         1         1         1         1         1         1         1         1         1         1         1         1
         1         1         1         1         1         1         1         1         1         1         1         1         1         1         1
         1         1         1         1         1         1         1         1         1         1         1         1         1         1         1
         1         1         1         1         1         1         1         1         1         1         1         1         1         1         1
         1         1         1         1         1         1         1         1         1         1         1         1         1         1         1
         1         1         1         1         1         1         1         1         1         1         1         1         1         1         1
         1         1         1         1         1         1         1         1         1         1         1         1         1         1         1
         1         1         1         1         1         1         1         1         1         1         1         1         1         1         1
         1         1         1         1         1         1         1         1         1         1         1         1         1         1         1
         1         1         1         1         1         1         1         1         1         1         1         1         1         1         1
INTERNAL               1    (15I10) -1 #ibound layer 3                
         1         1         1         1         1         1         1         1         1         1         1         1         1         1         1
         1         1         1         1         1         1         1         1         1         1         1         1         1         1         1
         1         1         1         1         1         1         1         1         1         1         1         1         1         1         1
         1         1         1         1         1         1         1         1         1         1         1         1         1         1         1
         1         1         1         1         1         1         1         1         1         1         1         1         1         1         1
         1         1         1         1         1         1         1         1         1         1         1         1         1         1         1
         1         1         1         1         1         1         1         1         1         1         1         1         1         1         1
         1         1         1         1         1         1         1         1         1         1         1         1         1         1         1
         1         1         1         1         1         1         1         1         1         1         1         1         1         1         1
         1         1         1         1         1         1         1         1         1         1         1         1         1         1         1
         1         1         1         1         1         1         1         1         1         1         1         1         1         1         1
         1         1         1         1         1         1         1         1         1         1         1         1         1         1         1
         1         1         1         1         1         1         1         1         1         1         1         1         1         1         1
         1         1         1         1         1         1         1         1         1         1         1         1         1         0         0
         1         1         1         1         1         1         1         1         1         1         1         1         1         0         0
    -999.0
INTERNAL               1  (15E15.6) -1 #strt layer 1                  
   9.500000E+01   9.500000E+01   9.500000E+01   9.500000E+01   9.500000E+01   9.500000E+01   9.500000E+01   9.500000E+01   9.500000E+01   9.500000E+01   9.500000E+01   9.500000E+01   9.500000E+01   9.500000E+01   9.500000E+01
   9.500000E+01   9.500000E+01   9.500000E+01   9.500000E+01   9.500000E+01   9.500000E+01   9.500000E+01   9.500000E+01   9.500000E+01   9.500000E+01   9.500000E+01   9.500000E+01   9.500000E+01   9.500000E+01   9.500000E+01
   9.500000E+01   9.500000E+01   9.500000E+01   9.500000E+01   9.500000E+01   9.500000E+01   9.500000E+01   9.500000E+01   9.500000E+01   9.500000E+01   9.500000E+01   9.500000E+01   9.500000E+01   9.500000E+01   9.500000E+01
   9.500000E+01   9.500000E+01   9.500000E+01   9.500000E+01   9.500000E+01   9.500000E+01   9.500000E+01   9.500000E+01   9.500000E+01   9.500000E+01   9.500000E+01   9.500000E+01   9.500000E+01   9.500000E+01   9.500000E+01
   9.500000E+01   9.500000E+01   9.500000E+01   9.500000E+01   9.500000E+01   9.500000E+01   9.500000E+01   9.500000E+01   9.500000E+01   9.500000E+01   9.500000E+01   9.500000E+01   9.500000E+01   9.500000E+01   9.500000E+01
   9.500000E+01   9.500000E+01   9.500000E+01   9.500000E+01   9.500000E+01   9.500000E+01   9.500000E+01   9.500000E+01   9.500000E+01   9.500000E+01   9.500000E+01   9.500000E+01   9.500000E+01   9.500000E+01   9.500000E+01
   9.500000E+01   9.500000E+01   9.500000E+01   9.500000E+01   9.500000E+01   9.500000E+01   9.500000E+01   9.500000E+01   9.500000E+01   9.500000E+01   9.500000E+01   9.500000E+01   9.500000E+01   9.500000E+01   9.500000E+01
   9.500000E+01   9.500000E+01   9.500000E+01   9.500000E+01   9.500000E+01   9.500000E+01   9.500000E+01   9.500000E+01   9.500000E+01   9.500000E+01   9.500000E+01   9.500000E+01   9.500000E+01   9.500000E+01   9.500000E+01
   9.500000E+01   9.500000E+01   9.500000E+01   9.500000E+01   9.500000E+01   9.500000E+01   9.500000E+01   9.500000E+01   9.500000E+01   9.500000E+01   9.500000E+01   9.500000E+01   9.500000E+01   9.500000E+01   9.500000E+01
   9.500000E+01   9.500000E+01   9.500000E+01   9.500000E+01   9.500000E+01   9.500000E+01   9.500000E+01   9.500000E+01   9.500000E+01   9.500000E+01   9.500000E+01   9.500000E+01   9.500000E+01   9.500000E+01   9.500000E+01
   9.500000E+01   9.500000E+01   9.500000E+01   9.500000E+01   9.500000E+01   9.500000E+01   9.500000E+01   9.500000E+01   9.500000E+01   9.500000E+01   9.500000E+01   9.500000E+01   9.500000E+01   9.500000E+01   9.500000E+01
   9.500000E+01   9.500000E+01   9.500000E+01   9.500000E+01   9.500000E+01   9.500000E+01   9.500000E+01   9.500000E+01   9.500000E+01   9.500000E+01   9.500000E+01   9.500000E+01   9.500000E+01   9.500000E+01   9.500000E+01
   9.500000E+01   9.500000E+01   9.500000E+01   9.500000E+01   9.500000E+01   9.500000E+01   9.500000E+01   9.500000E+01   9.500000E+01   9.500000E+01   9.500000E+01   9.500000E+01   9.500000E+01   9.500000E+01   9.500000E+01
   9.500000E+01   9.500000E+01   9.500000E+01   9.500000E+01   9.500000E+01   9.500000E+01   9.500000E+01   9.500000E+01   9.500000E+01   9.500000E+01   9.500000E+01   9.500000E+01   9.500000E+01   9.500000E+01   9.500000E+01
   9.500000E+01   9.500000E+01   9.500000E+01   9.500000E+01   9.500000E+01   9.500000E+01   9.500000E+01   9.500000E+01   9.500000E+01   9.500000E+01   9.500000E+01   9.500000E+01   9.500000E+01   9.500000E+01   9.500000E+01
INTERNAL               1  (15E15.6) -1 #strt layer 2                  
   9.000000E+01   9.000000E+01   9.000000E+01   9.000000E+01   9.000000E+01   9.000000E+01   9.000000E+01   9.000000E+01   9.000000E+01   9.000000E+01   9.000000E+01   9.000000E+01   9.000000E+01   9.000000E+01   9.000000E+01
   9.000000E+01   9.000000E+01   9.000000E+01   9.000000E+01   9.000000E+01   9.000000E+01   9.000000E+01   9.000000E+01   9.000000E+01   9.000000E+01   9.000000E+01   9.000000E+01   9.000000E+01   9.000000E+01   9.000000E+01
   9.000000E+01   9.000000E+01   9.000000E+01   9.000000E+01   9.000000E+01   9.000000E+01   9.000000E+01   9.000000E+01   9.000000E+01   9.000000E+01   9.000000E+01   9.000000E+01   9.000000E+01   9.000000E+01   9.000000E+01
   9.000000E+01   9.000000E+01   9.000000E+01   9.000000E+01   9.000000E+01   9.000000E+01   9.000000E+01   9.000000E+01   9.000000E+01   9.000000E+01   9.000000E+01   9.000000E+01   9.000000E+01   9.000000E+01   9.000000E+01
   9.000000E+01   9.000000E+01   9.000000E+01   9.000000E+01   9.000000E+01   9.000000E+01   9.000000E+01   9.000000E+01   9.000000E+01   9.000000E+01   9.000000E+01   9.000000E+01   9.000000E+01   9.000000E+01   9.000000E+01
   9.000000E+01   9.000000E+01   9.000000E+01   9.000000E+01   9.000000E+01   9.000000E+01   9.000000E+01   9.000000E+01   9.000000E+01   9.000000E+01   9.000000E+01   9.000000E+01   9.000000E+01   9.000000E+01   9.000000E+01
   9.000000E+01   9.000000E+01   9.000000E+01   9.000000E+01   9.000000E+01   9.000000E+01   9.000000E+01   9.000000E+01   9.000000E+01   9.000000E+01   9.000000E+01   9.000000E+01   9.000000E+01   9.000000E+01   9.000000E+01
   9.000000E+01   9.000000E+01   9.000000E+01   9.000000E+01   9.000000E+01   9.000000E+01   9.000000E+01   9.000000E+01   9.000000E+01   9.000000E+01   9.000000E+01   9.000000E+01   9.000000E+01   9.000000E+01   9.000000E+01
   9.000000E+01   9.000000E+01   9.000000E+01   9.000000E+01   9.000000E+01   9.000000E+01   9.000000E+01   9.000000E+01   9.000000E+01   9.000000E+01   9.000000E+01   9.000000E+01   9.000000E+01   9.000000E+01   9.000000E+01
   9.000000E+01   9.000000E+01   9.000000E+01   9.000000E+01   9.000000E+01   9.000000E+01   9.000000E+01   9.000000E+01   9.000000E+01   9.000000E+01   9.000000E+01   9.000000E+01   9.000000E+01   9.000000E+01   9.000000E+01
   9.000000E+01   9.000000E+01   9.000000E+01   9.000000E+01   9.000000E+01   9.000000E+01   9.000000E+01   9.000000E+01   9.000000E+01   9.000000E+01   9.000000E+01   9.000000E+01   9.000000E+01   9.000000E+01   9.000000E+01
   9.000000E+01   9.000000E+01   9.000000E+01   9.000000E+01   9.000000E+01   9.000000E+01   9.000000E+01   9.000000E+01   9.000000E+01   9.000000E+01   9.000000E+01   9.000000E+01   9.000000E+01   9.000000E+01   9.000000E+01
   9.000000E+01   9.000000E+01   9.000000E+01   9.000000E+01   9.000000E+01   9.000000E+01   9.000000E+01   9.000000E+01   9.000000E+01   9.000000E+01   9.000000E+01   9.000000E+01   9.000000E+01   9.000000E+01   9.000000E+01
   9.000000E+01   9.000000E+01   9.000000E+01   9.000000E+01   9.000000E+01   9.000000E+01   9.000000E+01   9.000000E+01   9.000000E+01   9.000000E+01   9.000000E+01   9.000000E+01   9.000000E+01   9.000000E+01   9.000000E+01
   9.000000E+01   9.000000E+01   9.000000E+01   9.000000E+01   9.000000E+01   9.000000E+01   9.000000E+01   9.000000E+01   9.000000E+01   9.000000E+01   9.000000E+01   9.000000E+01   9.000000E+01   9.000000E+01   9.000000E+01
INTERNAL               1  (15E15.6) -1 #strt layer 3                  
   8.500000E+01   8.500000E+01   8.500000E+01   8.500000E+01   8.500000E+01   8.500000E+01   8.500000E+01   8.500000E+01   8.500000E+01   8.500000E+01   8.500000E+01   8.500000E+01   8.500000E+01   8.500000E+01   8.500000E+01
   8.500000E+01   8.500000E+01   8.500000E+01   8.500000E+01   8.500000E+01   8.500000E+01   8.500000E+01   8.500000E+01   8.500000E+01   8.500000E+01   8.500000E+01   8.500000E+01   8.500000E+01   8.500000E+01   8.500000E+01
   8.500000E+01   8.500000E+01   8.500000E+01   8.500000E+01   8.500000E+01   8.500000E+01   8.500000E+01   8.500000E+01   8.500000E+01   8.500000E+01   8.500000E+01   8.500000E+01   8.500000E+01   8.500000E+01   8.500000E+01
   8.500000E+01   8.500000E+01   8.500000E+01   8.500000E+01   8.500000E+01   8.500000E+01   8.500000E+01   8.500000E+01   8.500000E+01   8.500000E+01   8.500000E+01   8.500000E+01   8.500000E+01   8.500000E+01   8.500000E+01
   8.500000E+01   8.500000E+01   8.500000E+01   8.500000E+01   8.500000E+01   8.500000E+01   8.500000E+01   8.500000E+01   8.500000E+01   8.500000E+01   8.500000E+01   8.500000E+01   8.500000E+01   8.500000E+01   8.500000E+01
   8.500000E+01   8.500000E+01   8.500000E+01   8.500000E+01   8.500000E+01   8.500000E+01   8.500000E+01   8.500000E+01   8.500000E+01   8.500000E+01   8.500000E+01   8.500000E+01   8.500000E+01   8.500000E+01   8.500000E+01
   8.500000E+01   8.500000E+01   8.500000E+01   8.500000E+01   8.500000E+01   8.500000E+01   8.500000E+01   8.500000E+01   8.500000E+01   8.500000E+01   8.500000E+01   8.500000E+01   8.500000E+01   8.500000E+01   8.500000E+01
   8.500000E+01   8.500000E+01   8.500000E+01   8.500000E+01   8.500000E+01   8.500000E+01   8.500000E+01   8.500000E+01   8.500000E+01   8.500000E+01   8.500000E+01   8.500000E+01   8.500000E+01   8.500000E+01   8.500000E+01
   8.500000E+01   8.500000E+01   8.500000E+01   8.500000E+01   8.500000E+01   8.500000E+01   8.500000E+01   8.500000E+01   8.500000E+01   8.500000E+01   8.500000E+01   8.500000E+01   8.500000E+01   8.500000E+01   8.500000E+01
   8.500000E+01   8.500000E+01   8.500000E+01   8.500000E+01   8.500000E+01   8.500000E+01   8.500000E+01   8.500000E+01   8.500000E+01   8.500000E+01   8.500000E+01   8.500000E+01   8.500000E+01   8.500000E+01   8.500000E+01
   8.500000E+01   8.500000E+01   8.500000E+01   8.500000E+01   8.500000E+01   8.500000E+01   8.500000E+01   8.500000E+01   8.500000E+01   8.500000E+01   8.500000E+01   8.500000E+01   8.500000E+01   8.500000E+01   8.500000E+01
   8.500000E+01   8.500000E+01   8.500000E+01   8.500000E+01   8.500000E+01   8.500000E+01   8.500000E+01   8.500000E+01   8.500000E+01   8.500000E+01   8.500000E+01   8.500000E+01   8.500000E+01   8.500000E+01   8.500000E+01
   8.500000E+01   8.500000E+01   8.500000E+01   8.500000E+01   8.500000E+01   8.500000E+01   8.500000E+01   8.500000E+01   8.500000E+01   8.500000E+01   8.500000E+01   8.500000E+01   8.500000E+01   8.500000E+01   8.500000E+01
   8.500000E+01   8.500000E+01   8.500000E+01   8.500000E+01   8.500000E+01   8.500000E+01   8.500000E+01   8.500000E+01   8.500000E+01   8.500000E+01   8.500000E+01   8.500000E+01   8.500000E+01   8.500000E+01   8.500000E+01
   8.500000E+01   8.500000E+01   8.500000E+01   8.500000E+01   8.500000E+01   8.500000E+01   8.500000E+01   8.500000E+01   8.500000E+01   8.500000E+01   8.500000E+01   8.500000E+01   8.500000E+01   8.500000E+01   8.500000E+01
