# RCH package for MODFLOW-2005 generated by Flopy 3.9.3
         3        53
         1        -1 # Stress period 1
CONSTANT    1.000000E-03                           #rech_1                        
         1        -1 # Stress period 2
CONSTANT    2.000000E-03                           #rech_2                        
         1        -1 # Stress period 3
CONSTANT    5.000000E-04                           #rech_3                        
