# GHB package for MODFLOW-2005 generated by Flopy 3.9.3
        15        53
        15         0 # stress period 1
         2         1        15            88.0             0.1
         2         2        15            88.0             0.1
         2         3        15            88.0             0.1
         2         4        15            88.0             0.1
         2         5        15            88.0             0.1
         2         6        15            88.0             0.1
         2         7        15            88.0             0.1
         2         8        15            88.0             0.1
         2         9        15            88.0             0.1
         2        10        15            88.0             0.1
         2        11        15            88.0             0.1
         2        12        15            88.0             0.1
         2        13        15            88.0             0.1
         2        14        15            88.0             0.1
         2        15        15            88.0             0.1
        15         0 # stress period 2
         2         1        15            88.0             0.1
         2         2        15            88.0             0.1
         2         3        15            88.0             0.1
         2         4        15            88.0             0.1
         2         5        15            88.0             0.1
         2         6        15            88.0             0.1
         2         7        15            88.0             0.1
         2         8        15            88.0             0.1
         2         9        15            88.0             0.1
         2        10        15            88.0             0.1
         2        11        15            88.0             0.1
         2        12        15            88.0             0.1
         2        13        15            88.0             0.1
         2        14        15            88.0             0.1
         2        15        15            88.0             0.1
        15         0 # stress period 3
         2         1        15            88.0             0.1
         2         2        15            88.0             0.1
         2         3        15            88.0             0.1
         2         4        15            88.0             0.1
         2         5        15            88.0             0.1
         2         6        15            88.0             0.1
         2         7        15            88.0             0.1
         2         8        15            88.0             0.1
         2         9        15            88.0             0.1
         2        10        15            88.0             0.1
         2        11        15            88.0             0.1
         2        12        15            88.0             0.1
         2        13        15            88.0             0.1
         2        14        15            88.0             0.1
         2        15        15            88.0             0.1
