# WEL package for MODFLOW-2005 generated by Flopy 3.9.3
         2        53 
         0         0 # stress period 1
         2         0 # stress period 2
         1         8         8          -500.0
         2         6        11          -200.0
         2         0 # stress period 3
         1         8         8          -300.0
         2         6        11          -100.0
