# Name file for MODFLOW-2005, generated by Flopy version 3.9.3.
#xll:500.0; yll:0.0; rotation:0.0; units:meters; lenuni:2; start_datetime:1/1/2024
LIST               2  modflow_demo.list
DIS               11  modflow_demo.dis
BAS6              13  modflow_demo.bas
LPF               15  modflow_demo.lpf
WEL               20  modflow_demo.wel
RCH               19  modflow_demo.rch
GHB               23  modflow_demo.ghb
OC                14  modflow_demo.oc
PCG               27  modflow_demo.pcg
DATA(BINARY)      53  modflow_demo.cbc REPLACE
DATA(BINARY)      51  modflow_demo.hds REPLACE
