# File generated by Flopy version 3.9.3 on 08/08/2025 at 09:11:16.
BEGIN options
  SAVE_FLOWS
END options

BEGIN packages
  DIS6  formhead.dis  dis
  NPF6  formhead.npf  npf
  IC6  formhead.ic  ic
  CHD6  formhead.chd  chd_0
  OC6  formhead.oc  oc
END packages

