# File generated by Flopy version 3.9.3 on 08/08/2025 at 09:11:16.
BEGIN options
  SAVE_SPECIFIC_DISCHARGE
END options

BEGIN griddata
  icelltype
    CONSTANT  0
  k
    CONSTANT      10.00000000
  k33
    CONSTANT       1.00000000
END griddata

