# File generated by Flopy version 3.9.3 on 08/08/2025 at 09:11:16.
BEGIN options
  BUDGET  FILEOUT  formhead.cbc
  HEAD  FILEOUT  formhead.hds
END options

BEGIN period  1
  SAVE  HEAD  ALL
  SAVE  BUDGET  ALL
  PRINT  HEAD  LAST
  PRINT  BUDGET  LAST
END period  1

