# File generated by Flopy version 3.9.3 on 08/08/2025 at 09:11:16.
BEGIN options
END options

BEGIN timing
  TDIS6  formhead.tdis
END timing

BEGIN models
  gwf6  formhead.nam  formhead
END models

BEGIN exchanges
END exchanges

BEGIN solutiongroup  1
  ims6  formhead.ims  formhead
END solutiongroup  1

