# Name file for MODFLOW-2005, generated by Flopy version 3.9.3.
#xll:0.0; yll:0.0; rotation:0.0; units:meters; lenuni:2; start_datetime:1-1-1970
LIST               2  drn_demo.list
DIS               11  drn_demo.dis
BAS6              13  drn_demo.bas
LPF               15  drn_demo.lpf
DRN               21  drn_demo.drn
OC                14  drn_demo.oc
PCG               27  drn_demo.pcg
DATA(BINARY)      53  drn_demo.cbc REPLACE
DATA(BINARY)      51  drn_demo.hds REPLACE
