# BAS6 package for MODFLOW-2005 generated by Flopy 3.9.3
FREE
INTERNAL               1    (15I10) -1 #ibound layer 1                
        -1         1         1         1         1         1         1         1         1         1         1         1         1         1        -1
        -1         1         1         1         1         1         1         1         1         1         1         1         1         1        -1
        -1         1         1         1         1         1         1         1         1         1         1         1         1         1        -1
        -1         1         1         1         1         1         1         1         1         1         1         1         1         1        -1
        -1         1         1         1         1         1         1         1         1         1         1         1         1         1        -1
        -1         1         1         1         1         1         1         1         1         1         1         1         1         1        -1
        -1         1         1         1         1         1         1         1         1         1         1         1         1         1        -1
        -1         1         1         1         1         1         1         1         1         1         1         1         1         1        -1
        -1         1         1         1         1         1         1         1         1         1         1         1         1         1        -1
        -1         1         1         1         1         1         1         1         1         1         1         1         1         1        -1
        -1         1         1         1         1         1         1         1         1         1         1         1         1         1        -1
        -1         1         1         1         1         1         1         1         1         1         1         1         1         1        -1
        -1         1         1         1         1         1         1         1         1         1         1         1         1         1        -1
        -1         1         1         1         1         1         1         1         1         1         1         1         1         1        -1
        -1         1         1         1         1         1         1         1         1         1         1         1         1         1        -1
   -999.99
INTERNAL               1  (15E15.6) -1 #strt layer 1                  
   2.800000E+01   2.750000E+01   2.700000E+01   2.650000E+01   2.600000E+01   2.550000E+01   2.500000E+01   2.450000E+01   2.400000E+01   2.350000E+01   2.300000E+01   2.250000E+01   2.200000E+01   2.150000E+01   2.100000E+01
   2.800000E+01   2.750000E+01   2.700000E+01   2.650000E+01   2.600000E+01   2.550000E+01   2.500000E+01   2.450000E+01   2.400000E+01   2.350000E+01   2.300000E+01   2.250000E+01   2.200000E+01   2.150000E+01   2.100000E+01
   2.800000E+01   2.750000E+01   2.700000E+01   2.650000E+01   2.600000E+01   2.550000E+01   2.500000E+01   2.450000E+01   2.400000E+01   2.350000E+01   2.300000E+01   2.250000E+01   2.200000E+01   2.150000E+01   2.100000E+01
   2.800000E+01   2.750000E+01   2.700000E+01   2.650000E+01   2.600000E+01   2.550000E+01   2.500000E+01   2.450000E+01   2.400000E+01   2.350000E+01   2.300000E+01   2.250000E+01   2.200000E+01   2.150000E+01   2.100000E+01
   2.800000E+01   2.750000E+01   2.700000E+01   2.650000E+01   2.600000E+01   2.550000E+01   2.500000E+01   2.450000E+01   2.400000E+01   2.350000E+01   2.300000E+01   2.250000E+01   2.200000E+01   2.150000E+01   2.100000E+01
   2.800000E+01   2.750000E+01   2.700000E+01   2.650000E+01   2.600000E+01   2.550000E+01   2.500000E+01   2.450000E+01   2.400000E+01   2.350000E+01   2.300000E+01   2.250000E+01   2.200000E+01   2.150000E+01   2.100000E+01
   2.800000E+01   2.750000E+01   2.700000E+01   2.650000E+01   2.600000E+01   2.550000E+01   2.500000E+01   2.450000E+01   2.400000E+01   2.350000E+01   2.300000E+01   2.250000E+01   2.200000E+01   2.150000E+01   2.100000E+01
   2.800000E+01   2.750000E+01   2.700000E+01   2.650000E+01   2.600000E+01   2.550000E+01   2.500000E+01   2.450000E+01   2.400000E+01   2.350000E+01   2.300000E+01   2.250000E+01   2.200000E+01   2.150000E+01   2.100000E+01
   2.800000E+01   2.750000E+01   2.700000E+01   2.650000E+01   2.600000E+01   2.550000E+01   2.500000E+01   2.450000E+01   2.400000E+01   2.350000E+01   2.300000E+01   2.250000E+01   2.200000E+01   2.150000E+01   2.100000E+01
   2.800000E+01   2.750000E+01   2.700000E+01   2.650000E+01   2.600000E+01   2.550000E+01   2.500000E+01   2.450000E+01   2.400000E+01   2.350000E+01   2.300000E+01   2.250000E+01   2.200000E+01   2.150000E+01   2.100000E+01
   2.800000E+01   2.750000E+01   2.700000E+01   2.650000E+01   2.600000E+01   2.550000E+01   2.500000E+01   2.450000E+01   2.400000E+01   2.350000E+01   2.300000E+01   2.250000E+01   2.200000E+01   2.150000E+01   2.100000E+01
   2.800000E+01   2.750000E+01   2.700000E+01   2.650000E+01   2.600000E+01   2.550000E+01   2.500000E+01   2.450000E+01   2.400000E+01   2.350000E+01   2.300000E+01   2.250000E+01   2.200000E+01   2.150000E+01   2.100000E+01
   2.800000E+01   2.750000E+01   2.700000E+01   2.650000E+01   2.600000E+01   2.550000E+01   2.500000E+01   2.450000E+01   2.400000E+01   2.350000E+01   2.300000E+01   2.250000E+01   2.200000E+01   2.150000E+01   2.100000E+01
   2.800000E+01   2.750000E+01   2.700000E+01   2.650000E+01   2.600000E+01   2.550000E+01   2.500000E+01   2.450000E+01   2.400000E+01   2.350000E+01   2.300000E+01   2.250000E+01   2.200000E+01   2.150000E+01   2.100000E+01
   2.800000E+01   2.750000E+01   2.700000E+01   2.650000E+01   2.600000E+01   2.550000E+01   2.500000E+01   2.450000E+01   2.400000E+01   2.350000E+01   2.300000E+01   2.250000E+01   2.200000E+01   2.150000E+01   2.100000E+01
