# DRN package for MODFLOW-2005 generated by Flopy 3.9.3
        31        53
        31         0 # stress period 1
         1         3         8            24.0            10.0
         1         4         8            24.0            10.0
         1         5         8            24.0            10.0
         1         6         8            24.0            10.0
         1         7         8            24.0            10.0
         1         8         8            24.0            10.0
         1         9         8            24.0            10.0
         1        10         8            24.0            10.0
         1        11         8            24.0            10.0
         1        12         8            24.0            10.0
         1        13         8            24.0            10.0
         1         5        10            24.5             5.0
         1         8        10            24.5             5.0
         1        11        10            24.5             5.0
         1         5        12            24.5             5.0
         1         8        12            24.5             5.0
         1        11        12            24.5             5.0
         1         5         3            24.5             5.0
         1         8         3            24.5             5.0
         1        11         3            24.5             5.0
         1         5         5            24.5             5.0
         1         8         5            24.5             5.0
         1        11         5            24.5             5.0
         1         6         6            25.0             2.0
         1         6        10            25.0             2.0
         1        10         6            25.0             2.0
         1        10        10            25.0             2.0
         1         4         8            25.0             2.0
         1         8         4            25.0             2.0
         1        12         8            25.0             2.0
         1         8        12            25.0             2.0
