# File generated by Flopy version 3.9.3 on 08/07/2025 at 18:10:06.
BEGIN options
  SAVE_FLOWS
END options

BEGIN dimensions
  MAXBOUND  60
END dimensions

BEGIN period  1
  1 1 1 9.50000000E+01
  1 1 10 9.00000000E+01
  1 2 1 9.50000000E+01
  1 2 10 9.00000000E+01
  1 3 1 9.50000000E+01
  1 3 10 9.00000000E+01
  1 4 1 9.50000000E+01
  1 4 10 9.00000000E+01
  1 5 1 9.50000000E+01
  1 5 10 9.00000000E+01
  1 6 1 9.50000000E+01
  1 6 10 9.00000000E+01
  1 7 1 9.50000000E+01
  1 7 10 9.00000000E+01
  1 8 1 9.50000000E+01
  1 8 10 9.00000000E+01
  1 9 1 9.50000000E+01
  1 9 10 9.00000000E+01
  1 10 1 9.50000000E+01
  1 10 10 9.00000000E+01
  2 1 1 9.50000000E+01
  2 1 10 9.00000000E+01
  2 2 1 9.50000000E+01
  2 2 10 9.00000000E+01
  2 3 1 9.50000000E+01
  2 3 10 9.00000000E+01
  2 4 1 9.50000000E+01
  2 4 10 9.00000000E+01
  2 5 1 9.50000000E+01
  2 5 10 9.00000000E+01
  2 6 1 9.50000000E+01
  2 6 10 9.00000000E+01
  2 7 1 9.50000000E+01
  2 7 10 9.00000000E+01
  2 8 1 9.50000000E+01
  2 8 10 9.00000000E+01
  2 9 1 9.50000000E+01
  2 9 10 9.00000000E+01
  2 10 1 9.50000000E+01
  2 10 10 9.00000000E+01
  3 1 1 9.50000000E+01
  3 1 10 9.00000000E+01
  3 2 1 9.50000000E+01
  3 2 10 9.00000000E+01
  3 3 1 9.50000000E+01
  3 3 10 9.00000000E+01
  3 4 1 9.50000000E+01
  3 4 10 9.00000000E+01
  3 5 1 9.50000000E+01
  3 5 10 9.00000000E+01
  3 6 1 9.50000000E+01
  3 6 10 9.00000000E+01
  3 7 1 9.50000000E+01
  3 7 10 9.00000000E+01
  3 8 1 9.50000000E+01
  3 8 10 9.00000000E+01
  3 9 1 9.50000000E+01
  3 9 10 9.00000000E+01
  3 10 1 9.50000000E+01
  3 10 10 9.00000000E+01
END period  1

