# File generated by Flopy version 3.9.3 on 08/07/2025 at 18:10:06.
BEGIN options
  SAVE_FLOWS
END options

BEGIN dimensions
  MAXBOUND  2
END dimensions

BEGIN period  1
  2 5 5 -1.00000000E+02
  3 8 8 -5.00000000E+01
END period  1

