# File generated by Flopy version 3.9.3 on 08/08/2025 at 09:11:10.
BEGIN options
  BUDGET  FILEOUT  budget_example.cbc
  HEAD  FILEOUT  budget_example.hds
END options

BEGIN period  1
  SAVE  HEAD  ALL
  SAVE  BUDGET  ALL
END period  1

