# File generated by Flopy version 3.9.3 on 08/07/2025 at 18:10:06.
BEGIN options
END options

BEGIN timing
  TDIS6  budget_example.tdis
END timing

BEGIN models
  gwf6  budget_example.nam  budget_example
END models

BEGIN exchanges
END exchanges

BEGIN solutiongroup  1
  ims6  budget_example.ims  budget_example
END solutiongroup  1

