# File generated by Flopy version 3.9.3 on 08/07/2025 at 17:46:53.
BEGIN options
END options

BEGIN griddata
  strt
    CONSTANT      30.00000000
END griddata

