# File generated by Flopy version 3.9.3 on 08/07/2025 at 17:46:53.
BEGIN options
END options

BEGIN dimensions
  MAXBOUND  2
END dimensions

BEGIN period  1
  1 1 1 3.50000000E+01
  3 20 25 2.50000000E+01
END period  1

