# File generated by Flopy version 3.9.3 on 08/07/2025 at 17:46:53.
BEGIN options
  SAVE_FLOWS
END options

BEGIN packages
  DIS6  grid_dis_demo.dis  dis
  NPF6  grid_dis_demo.npf  npf
  IC6  grid_dis_demo.ic  ic
  CHD6  grid_dis_demo.chd  chd_0
  OC6  grid_dis_demo.oc  oc
END packages

