# File generated by Flopy version 3.9.3 on 08/07/2025 at 17:46:53.
BEGIN options
END options

BEGIN dimensions
  NLAY  3
  NROW  20
  NCOL  25
END dimensions

BEGIN griddata
  delr
    CONSTANT     100.00000000
  delc
    CONSTANT     100.00000000
  top
    CONSTANT      50.00000000
  botm  LAYERED
    CONSTANT      20.00000000
    CONSTANT       0.00000000
    CONSTANT     -30.00000000
  idomain
    CONSTANT  1
END griddata

