# File generated by Flopy version 3.9.3 on 08/07/2025 at 17:46:53.
BEGIN options
END options

BEGIN timing
  TDIS6  grid_dis_demo.tdis
END timing

BEGIN models
  gwf6  grid_dis_demo.nam  grid_dis_demo
END models

BEGIN exchanges
END exchanges

BEGIN solutiongroup  1
  ims6  grid_dis_demo.ims  grid_dis_demo
END solutiongroup  1

