# Name file for MODFLOW-2005, generated by Flopy version 3.9.3.
#xll:0.0; yll:0.0; rotation:0.0; units:meters; lenuni:2; start_datetime:1-1-1970
LIST               2  pcg_demo.list
DIS               11  pcg_demo.dis
BAS6              13  pcg_demo.bas
LPF               15  pcg_demo.lpf
PCG               27  pcg_demo.pcg
OC                14  pcg_demo.oc
DATA(BINARY)      51  pcg_demo.hds REPLACE
