# PCG package for MODFLOW-2005 generated by Flopy 3.9.3
150 50 1 0
0.0001 0.0001 0.98 2 1 3 1.0 
