# Name file for MODFLOW-2005, generated by Flopy version 3.9.3.
#xll:0.0; yll:0.0; rotation:0.0; units:meters; lenuni:2; start_datetime:1-1-1970
LIST               2  mnw1_example.list
DIS               11  mnw1_example.dis
BAS6              13  mnw1_example.bas
LPF               15  mnw1_example.lpf
WEL               20  mnw1_example.wel
CHD               24  mnw1_example.chd
OC                14  mnw1_example.oc
PCG               27  mnw1_example.pcg
DATA(BINARY)      53  mnw1_example.cbc REPLACE
DATA(BINARY)      51  mnw1_example.hds REPLACE
