# CHD package for MODFLOW-2005 generated by Flopy 3.9.3
         2
         2         0 # stress period 1
         1         1         1           100.0           100.0
         1         5         5            95.0            95.0
