# DIS package for MODFLOW-2005 generated by Flopy 3.9.3
         2         5         5         1         4         2
  0  0
CONSTANT    1.000000E+02                           #delr                          
CONSTANT    1.000000E+02                           #delc                          
CONSTANT    1.000000E+02                           #model_top                     
CONSTANT    5.000000E+01                           #botm layer 1                  
CONSTANT    0.000000E+00                           #botm layer 2                  
      1.000000             1  1.000000  SS
