# WEL package for MODFLOW-2005 generated by Flopy 3.9.3
         2        53 
         2         0 # stress period 1
         1         3         3          -250.0
         2         3         3          -250.0
