# File generated by Flopy version 3.9.3 on 08/08/2025 at 09:11:34.
BEGIN options
END options

BEGIN timing
  TDIS6  modpath_demo.tdis
END timing

BEGIN models
  gwf6  modpath_demo.nam  modpath_demo
END models

BEGIN exchanges
END exchanges

BEGIN solutiongroup  1
  ims6  modpath_demo.ims  modpath_demo
END solutiongroup  1

