# File generated by Flopy version 3.9.3 on 08/08/2025 at 18:39:10.
BEGIN options
  BUDGET  FILEOUT  modpath_demo.cbc
  HEAD  FILEOUT  modpath_demo.hds
END options

BEGIN period  1
  SAVE  HEAD  ALL
  SAVE  BUDGET  ALL
END period  1

