# File generated by Flopy version 3.9.3 on 08/08/2025 at 09:11:34.
BEGIN options
  SAVE_FLOWS
END options

BEGIN packages
  DIS6  modpath_demo.dis  dis
  IC6  modpath_demo.ic  ic
  NPF6  modpath_demo.npf  npf
  RCH6  modpath_demo.rcha  rcha_0
  WEL6  modpath_demo.wel  wel_0
  RIV6  modpath_demo.riv  riv_0
  OC6  modpath_demo.oc  oc
END packages

