# File generated by Flopy version 3.9.3 on 08/08/2025 at 09:11:34.
BEGIN options
  COMPLEXITY  simple
END options

BEGIN nonlinear
  OUTER_HCLOSE  1.00000000E-06
END nonlinear

BEGIN linear
  INNER_HCLOSE  1.00000000E-06
  inner_rclose  1.00000000E-06
END linear

