# File generated by Flopy version 3.9.3 on 08/08/2025 at 09:11:34.
BEGIN options
  READASARRAYS
END options

BEGIN period  1
  recharge
    CONSTANT       0.00200000
END period  1

