# WEL package for MODFLOW-2005 generated by Flopy 3.9.3
         1         0 
         1         0 # stress period 1
         3        11        10       -150000.0
