# SFR package for MODFLOW-NWT generated by Flopy 3.9.3
3 1 0 0 86400.00000000 0.00010000 0 0 
1 2 3 1 1 100.0
1 3 3 1 2 100.0
1 4 3 1 3 100.0
1 0 0
1 0 0 0 10.0 0 0 0 
36.0 1.0 0 0 0 
34.0 1.0 0 0 0 
1 0 0
1 0 0 0 10.0 0 0 0 
36.0 1.0 0 0 0 
34.0 1.0 0 0 0 
