# DIS package for MODFLOW-NWT generated by Flopy 3.9.3
         1         5         5         2         4         2
  0
CONSTANT    1.000000E+02                           #delr                          
CONSTANT    1.000000E+02                           #delc                          
CONSTANT    5.000000E+01                           #model_top                     
CONSTANT    0.000000E+00                           #botm layer 1                  
      7.000000             1  1.000000  TR
      7.000000             1  1.000000  TR
