# BAS6 package for MODFLOW-NWT generated by Flopy 3.9.3
FREE
INTERNAL               1     (5I10) -1 #ibound layer 1                
        -1         1         1         1        -1
        -1         1         1         1        -1
        -1         1         1         1        -1
        -1         1         1         1        -1
        -1         1         1         1        -1
   -999.99
INTERNAL               1   (5E15.6) -1 #strt layer 1                  
   5.000000E+01   4.750000E+01   4.500000E+01   4.250000E+01   4.000000E+01
   5.000000E+01   4.750000E+01   4.500000E+01   4.250000E+01   4.000000E+01
   5.000000E+01   4.750000E+01   4.500000E+01   4.250000E+01   4.000000E+01
   5.000000E+01   4.750000E+01   4.500000E+01   4.250000E+01   4.000000E+01
   5.000000E+01   4.750000E+01   4.500000E+01   4.250000E+01   4.000000E+01
