# AG package for MODFLOW-NWT generated by Flopy 3.9.3
OPTIONS
END
# segment list for irrigation diversions
SEGMENT LIST
END 
# ag stress period data
STRESS PERIOD 1
END 
STRESS PERIOD 2
END 
