# Name file for MODFLOW-NWT, generated by Flopy version 3.9.3.
#xll:0.0; yll:0.0; rotation:0.0; units:meters; lenuni:2; start_datetime:1-1-1970
LIST               2  agtest.list
DIS               11  agtest.dis
BAS6              13  agtest.bas
UPW               31  agtest.upw
SFR               17  agtest.sfr
AG                69  agtest.ag
NWT               32  agtest.nwt
OC                14  agtest.oc
DATA(BINARY)      51  agtest.hds REPLACE
