# DIS package for MODFLOW-2005 generated by Flopy 3.9.3
         1         1        50         2         4         2
  0
CONSTANT    5.000000E+01                           #delr                          
CONSTANT    1.000000E+00                           #delc                          
CONSTANT    0.000000E+00                           #model_top                     
CONSTANT   -4.000000E+01                           #botm layer 1                  
      1.000000             1  1.000000  SS
   3650.000000           100  1.000000  TR
