# BAS6 package for MODFLOW-2005 generated by Flopy 3.9.3
FREE
INTERNAL               1    (50I10) -1 #ibound layer 1                
         1         1         1         1         1         1         1         1         1         1         1         1         1         1         1         1         1         1         1         1         1         1         1         1         1         1         1         1         1         1         1         1         1         1         1         1         1         1         1         1         1         1         1         1         1         1         1         1         1        -1
   -999.99
INTERNAL               1  (50E15.6) -1 #strt layer 1                  
   5.000000E-01   4.900000E-01   4.800000E-01   4.700000E-01   4.600000E-01   4.500000E-01   4.400000E-01   4.300000E-01   4.200000E-01   4.100000E-01   4.000000E-01   3.900000E-01   3.800000E-01   3.700000E-01   3.600000E-01   3.500000E-01   3.400000E-01   3.300000E-01   3.200000E-01   3.100000E-01   3.000000E-01   2.900000E-01   2.800000E-01   2.700000E-01   2.600000E-01   2.500000E-01   2.400000E-01   2.300000E-01   2.200000E-01   2.100000E-01   2.000000E-01   1.900000E-01   1.800000E-01   1.700000E-01   1.600000E-01   1.500000E-01   1.400000E-01   1.300000E-01   1.200000E-01   1.100000E-01   1.000000E-01   9.000000E-02   8.000000E-02   7.000000E-02   6.000000E-02   5.000000E-02   4.000000E-02   3.000000E-02   2.000000E-02   0.000000E+00
