# SWI2 package for MODFLOW-2005 generated by Flopy 3.9.3
# Dataset 1
         1         0         0         0         0         0
# Dataset 2a
         2         0         3
# Dataset 2b
       500       100         1         0.001          0.01             1         2             1             1
# Dataset 3a
          0.05          0.05
# Dataset 4
INTERNAL               1   (3E15.6) -1 #nu                            
   0.000000E+00   1.250000E-02   2.500000E-02
# Dataset 5
INTERNAL               1  (50E15.6) -1 #zeta_1 layer 1                
  -2.000000E+01  -1.960000E+01  -1.920000E+01  -1.880000E+01  -1.840000E+01  -1.800000E+01  -1.760000E+01  -1.720000E+01  -1.680000E+01  -1.640000E+01  -1.600000E+01  -1.560000E+01  -1.520000E+01  -1.480000E+01  -1.440000E+01  -1.400000E+01  -1.360000E+01  -1.320000E+01  -1.280000E+01  -1.240000E+01  -1.200000E+01  -1.160000E+01  -1.120000E+01  -1.080000E+01  -1.040000E+01  -1.000000E+01  -9.600000E+00  -9.200000E+00  -8.800000E+00  -8.400000E+00  -8.000000E+00  -7.600000E+00  -7.200000E+00  -6.800000E+00  -6.400000E+00  -6.000000E+00  -5.600000E+00  -5.200000E+00  -4.800000E+00  -4.400000E+00  -4.000000E+00  -3.600000E+00  -3.200000E+00  -2.800000E+00  -2.400000E+00  -2.000000E+00  -1.600000E+00  -1.200000E+00  -8.000000E-01  -2.000000E+01
# Dataset 6
CONSTANT    2.000000E-01                           #ssz layer 1                   
# Dataset 7
INTERNAL               1    (50I10) -1 #isource layer 1               
         0         0         0         0         0         0         0         0         0         0         0         0         0         0         0         0         0         0         0         0         0         0         0         0         0         0         0         0         0         0         0         0         0         0         0         0         0         0         0         0        -1         0         0         0         0         0         0         0         0         1
