# PCG package for MODFLOW-2005 generated by Flopy 3.9.3
200 100 1 0
0.001 0.01 0.98 1 1 0 1.0 
