# Name file for MODFLOW-2005, generated by Flopy version 3.9.3.
#xll:0.0; yll:0.0; rotation:0.0; units:meters; lenuni:2; start_datetime:1-1-1970
LIST               2  gage_model.list
DIS               11  gage_model.dis
BAS6              13  gage_model.bas
LPF               15  gage_model.lpf
PCG               27  gage_model.pcg
OC                14  gage_model.oc
GAGE             120  gage_model.gage
DATA(BINARY)      51  gage_model.hds REPLACE
DATA              26  gage1_heads.out
DATA              27  gage2_heads.out
