# WEL package for MODFLOW-2005 generated by Flopy 3.9.3
         3         0 
         2         0 # stress period 1
         1         9        13           -80.0
         2        16         9           -50.0
         3         0 # stress period 2
         1         9        13          -120.0
         2        16         9           -70.0
         3        13        19           -30.0
