# WEL package for MODFLOW-2005 generated by Flopy 3.9.3
         3         0 
         2         0 # stress period 1
         1         9        13          -800.0
         2        16         9          -500.0
         3         0 # stress period 2
         1         9        13         -1200.0
         2        16         9          -700.0
         3        13        19          -300.0
