# Name file for MODFLOW-2005, generated by Flopy version 3.9.3.
#xll:0.0; yll:0.0; rotation:0.0; units:meters; lenuni:2; start_datetime:1-1-1970
LIST               2  shapefile_demo.list
DIS               11  shapefile_demo.dis
BAS6              13  shapefile_demo.bas
LPF               15  shapefile_demo.lpf
WEL               20  shapefile_demo.wel
RCH               19  shapefile_demo.rch
