# DIS package for MODFLOW-2005 generated by Flopy 3.9.3
         3        20        25         2         4         2
  0  0  0
INTERNAL               1  (25E15.6) -1 #delr                          
   1.000000E+02   1.000000E+02   1.000000E+02   1.000000E+02   1.000000E+02   1.000000E+02   1.000000E+02   1.000000E+02   1.000000E+02   1.000000E+02   1.000000E+02   1.000000E+02   1.000000E+02   1.000000E+02   1.000000E+02   1.000000E+02   1.000000E+02   1.000000E+02   1.000000E+02   1.000000E+02   1.000000E+02   1.000000E+02   1.000000E+02   1.000000E+02   1.000000E+02
INTERNAL               1  (20E15.6) -1 #delc                          
   1.000000E+02   1.000000E+02   1.000000E+02   1.000000E+02   1.000000E+02   1.000000E+02   1.000000E+02   1.000000E+02   1.000000E+02   1.000000E+02   1.000000E+02   1.000000E+02   1.000000E+02   1.000000E+02   1.000000E+02   1.000000E+02   1.000000E+02   1.000000E+02   1.000000E+02   1.000000E+02
CONSTANT    1.000000E+02                           #model_top                     
CONSTANT    7.500000E+01                           #botm layer 1                  
CONSTANT    5.000000E+01                           #botm layer 2                  
CONSTANT    2.500000E+01                           #botm layer 3                  
    365.000000            12  1.000000  SS
    365.000000            12  1.000000  TR
