# RCH package for MODFLOW-2005 generated by Flopy 3.9.3
         3         0
         1        -1 # Stress period 1
INTERNAL               1  (25E15.6) -1 #rech_1                        
   3.000000E-03   3.000000E-03   3.000000E-03   3.000000E-03   3.000000E-03   3.000000E-03   3.000000E-03   3.000000E-03   3.000000E-03   3.000000E-03   3.000000E-03   3.000000E-03   3.000000E-03   3.000000E-03   3.000000E-03   3.000000E-03   3.000000E-03   3.000000E-03   3.000000E-03   3.000000E-03   3.000000E-03   3.000000E-03   3.000000E-03   3.000000E-03   3.000000E-03
   3.000000E-03   3.000000E-03   3.000000E-03   3.000000E-03   3.000000E-03   3.000000E-03   3.000000E-03   3.000000E-03   3.000000E-03   3.000000E-03   3.000000E-03   3.000000E-03   3.000000E-03   3.000000E-03   3.000000E-03   3.000000E-03   3.000000E-03   3.000000E-03   3.000000E-03   3.000000E-03   3.000000E-03   3.000000E-03   3.000000E-03   3.000000E-03   3.000000E-03
   3.000000E-03   3.000000E-03   3.000000E-03   3.000000E-03   3.000000E-03   3.000000E-03   3.000000E-03   3.000000E-03   3.000000E-03   3.000000E-03   3.000000E-03   3.000000E-03   3.000000E-03   3.000000E-03   3.000000E-03   3.000000E-03   3.000000E-03   3.000000E-03   3.000000E-03   3.000000E-03   3.000000E-03   3.000000E-03   3.000000E-03   3.000000E-03   3.000000E-03
   3.000000E-03   3.000000E-03   3.000000E-03   3.000000E-03   3.000000E-03   3.000000E-03   3.000000E-03   3.000000E-03   3.000000E-03   3.000000E-03   3.000000E-03   3.000000E-03   3.000000E-03   3.000000E-03   3.000000E-03   3.000000E-03   3.000000E-03   3.000000E-03   3.000000E-03   3.000000E-03   3.000000E-03   3.000000E-03   3.000000E-03   3.000000E-03   3.000000E-03
   3.000000E-03   3.000000E-03   3.000000E-03   3.000000E-03   3.000000E-03   3.000000E-03   3.000000E-03   3.000000E-03   3.000000E-03   3.000000E-03   3.000000E-03   3.000000E-03   3.000000E-03   3.000000E-03   3.000000E-03   3.000000E-03   3.000000E-03   3.000000E-03   3.000000E-03   3.000000E-03   3.000000E-03   3.000000E-03   3.000000E-03   3.000000E-03   3.000000E-03
   1.000000E-03   1.000000E-03   1.000000E-03   1.000000E-03   1.000000E-03   1.000000E-03   1.000000E-03   1.000000E-03   1.000000E-03   1.000000E-03   1.000000E-03   1.000000E-03   1.000000E-03   1.000000E-03   1.000000E-03   1.000000E-03   1.000000E-03   1.000000E-03   1.000000E-03   1.000000E-03   1.000000E-03   1.000000E-03   1.000000E-03   1.000000E-03   1.000000E-03
   1.000000E-03   1.000000E-03   1.000000E-03   1.000000E-03   1.000000E-03   1.000000E-03   1.000000E-03   1.000000E-03   1.000000E-03   1.000000E-03   1.000000E-03   1.000000E-03   1.000000E-03   1.000000E-03   1.000000E-03   1.000000E-03   1.000000E-03   1.000000E-03   1.000000E-03   1.000000E-03   1.000000E-03   1.000000E-03   1.000000E-03   1.000000E-03   1.000000E-03
   1.000000E-03   1.000000E-03   1.000000E-03   1.000000E-03   1.000000E-03   1.000000E-03   1.000000E-03   1.000000E-03   1.000000E-03   1.000000E-03   1.000000E-03   1.000000E-03   1.000000E-03   1.000000E-03   1.000000E-03   1.000000E-03   1.000000E-03   1.000000E-03   1.000000E-03   1.000000E-03   1.000000E-03   1.000000E-03   1.000000E-03   1.000000E-03   1.000000E-03
   1.000000E-03   1.000000E-03   1.000000E-03   1.000000E-03   1.000000E-03   1.000000E-03   1.000000E-03   1.000000E-03   1.000000E-03   1.000000E-03   1.000000E-03   1.000000E-03   1.000000E-03   1.000000E-03   1.000000E-03   1.000000E-03   1.000000E-03   1.000000E-03   1.000000E-03   1.000000E-03   1.000000E-03   1.000000E-03   1.000000E-03   1.000000E-03   1.000000E-03
   1.000000E-03   1.000000E-03   1.000000E-03   1.000000E-03   1.000000E-03   1.000000E-03   1.000000E-03   1.000000E-03   1.000000E-03   1.000000E-03   1.000000E-03   1.000000E-03   1.000000E-03   1.000000E-03   1.000000E-03   1.000000E-03   1.000000E-03   1.000000E-03   1.000000E-03   1.000000E-03   1.000000E-03   1.000000E-03   1.000000E-03   1.000000E-03   1.000000E-03
   1.000000E-03   1.000000E-03   1.000000E-03   1.000000E-03   1.000000E-03   1.000000E-03   1.000000E-03   1.000000E-03   1.000000E-03   1.000000E-03   1.000000E-03   1.000000E-03   1.000000E-03   1.000000E-03   1.000000E-03   1.000000E-03   1.000000E-03   1.000000E-03   1.000000E-03   1.000000E-03   1.000000E-03   1.000000E-03   1.000000E-03   1.000000E-03   1.000000E-03
   1.000000E-03   1.000000E-03   1.000000E-03   1.000000E-03   1.000000E-03   1.000000E-03   1.000000E-03   1.000000E-03   1.000000E-03   1.000000E-03   1.000000E-03   1.000000E-03   1.000000E-03   1.000000E-03   1.000000E-03   1.000000E-03   1.000000E-03   1.000000E-03   1.000000E-03   1.000000E-03   1.000000E-03   1.000000E-03   1.000000E-03   1.000000E-03   1.000000E-03
   1.000000E-03   1.000000E-03   1.000000E-03   1.000000E-03   1.000000E-03   1.000000E-03   1.000000E-03   1.000000E-03   1.000000E-03   1.000000E-03   1.000000E-03   1.000000E-03   1.000000E-03   1.000000E-03   1.000000E-03   1.000000E-03   1.000000E-03   1.000000E-03   1.000000E-03   1.000000E-03   1.000000E-03   1.000000E-03   1.000000E-03   1.000000E-03   1.000000E-03
   1.000000E-03   1.000000E-03   1.000000E-03   1.000000E-03   1.000000E-03   1.000000E-03   1.000000E-03   1.000000E-03   1.000000E-03   1.000000E-03   1.000000E-03   1.000000E-03   1.000000E-03   1.000000E-03   1.000000E-03   1.000000E-03   1.000000E-03   1.000000E-03   1.000000E-03   1.000000E-03   1.000000E-03   1.000000E-03   1.000000E-03   1.000000E-03   1.000000E-03
   1.000000E-03   1.000000E-03   1.000000E-03   1.000000E-03   1.000000E-03   1.000000E-03   1.000000E-03   1.000000E-03   1.000000E-03   1.000000E-03   1.000000E-03   1.000000E-03   1.000000E-03   1.000000E-03   1.000000E-03   1.000000E-03   1.000000E-03   1.000000E-03   1.000000E-03   1.000000E-03   1.000000E-03   1.000000E-03   1.000000E-03   1.000000E-03   1.000000E-03
   5.000000E-04   5.000000E-04   5.000000E-04   5.000000E-04   5.000000E-04   5.000000E-04   5.000000E-04   5.000000E-04   5.000000E-04   5.000000E-04   5.000000E-04   5.000000E-04   5.000000E-04   5.000000E-04   5.000000E-04   5.000000E-04   5.000000E-04   5.000000E-04   5.000000E-04   5.000000E-04   5.000000E-04   5.000000E-04   5.000000E-04   5.000000E-04   5.000000E-04
   5.000000E-04   5.000000E-04   5.000000E-04   5.000000E-04   5.000000E-04   5.000000E-04   5.000000E-04   5.000000E-04   5.000000E-04   5.000000E-04   5.000000E-04   5.000000E-04   5.000000E-04   5.000000E-04   5.000000E-04   5.000000E-04   5.000000E-04   5.000000E-04   5.000000E-04   5.000000E-04   5.000000E-04   5.000000E-04   5.000000E-04   5.000000E-04   5.000000E-04
   5.000000E-04   5.000000E-04   5.000000E-04   5.000000E-04   5.000000E-04   5.000000E-04   5.000000E-04   5.000000E-04   5.000000E-04   5.000000E-04   5.000000E-04   5.000000E-04   5.000000E-04   5.000000E-04   5.000000E-04   5.000000E-04   5.000000E-04   5.000000E-04   5.000000E-04   5.000000E-04   5.000000E-04   5.000000E-04   5.000000E-04   5.000000E-04   5.000000E-04
   5.000000E-04   5.000000E-04   5.000000E-04   5.000000E-04   5.000000E-04   5.000000E-04   5.000000E-04   5.000000E-04   5.000000E-04   5.000000E-04   5.000000E-04   5.000000E-04   5.000000E-04   5.000000E-04   5.000000E-04   5.000000E-04   5.000000E-04   5.000000E-04   5.000000E-04   5.000000E-04   5.000000E-04   5.000000E-04   5.000000E-04   5.000000E-04   5.000000E-04
   5.000000E-04   5.000000E-04   5.000000E-04   5.000000E-04   5.000000E-04   5.000000E-04   5.000000E-04   5.000000E-04   5.000000E-04   5.000000E-04   5.000000E-04   5.000000E-04   5.000000E-04   5.000000E-04   5.000000E-04   5.000000E-04   5.000000E-04   5.000000E-04   5.000000E-04   5.000000E-04   5.000000E-04   5.000000E-04   5.000000E-04   5.000000E-04   5.000000E-04
        -1        -1 # Stress period 2
