# File generated by Flopy version 3.9.3 on 08/08/2025 at 09:11:31.
BEGIN options
  SAVE_FLOWS
END options

BEGIN packages
  DIS6  splitter_model.dis  dis
  IC6  splitter_model.ic  ic
  NPF6  splitter_model.npf  npf
  CHD6  splitter_model.chd  chd_0
  WEL6  splitter_model.wel  wel_0
  OC6  splitter_model.oc  oc
END packages

