# File generated by Flopy version 3.9.3 on 08/07/2025 at 16:12:35.
BEGIN options
  BUDGET  FILEOUT  splitter_model.cbc
  HEAD  FILEOUT  splitter_model.hds
END options

BEGIN period  1
  SAVE  HEAD  LAST
  SAVE  BUDGET  LAST
END period  1

