# File generated by Flopy version 3.9.3 on 08/08/2025 at 09:11:31.
BEGIN options
  BUDGET  FILEOUT  splitter_model.cbc
  HEAD  FILEOUT  splitter_model.hds
END options

BEGIN period  1
  SAVE  HEAD  LAST
  SAVE  BUDGET  LAST
END period  1

