# SFR package for MODFLOW-2005 generated by Flopy 3.9.3
2 1 0 0 86400.00000000 0.00010000 0 0 
1 6 5 1 1 100.0
1 6 6 1 2 100.0
1 0 0
1 0 0 0 0.001 0 0 0 
94.5 0 0 0 0 
94.4 0 0 0 0 
