# Name file for MODFLOW-2005, generated by Flopy version 3.9.3.
#xll:0.0; yll:0.0; rotation:0.0; units:meters; lenuni:2; start_datetime:1-1-1970
LIST               2  sfr_mf2005.list
DIS               11  sfr_mf2005.dis
BAS6              13  sfr_mf2005.bas
LPF               15  sfr_mf2005.lpf
SFR               17  sfr_mf2005.sfr
PCG               27  sfr_mf2005.pcg
OC                14  sfr_mf2005.oc
DATA(BINARY)      51  sfr_mf2005.hds REPLACE
