# RCH package for MODFLOW-2005 generated by Flopy 3.9.3
         3         0
         1        -1 # Stress period 1
INTERNAL               1  (20E15.6) -1 #recharge1                     
   5.000000E-04   5.000000E-04   5.000000E-04   5.000000E-04   5.000000E-04   5.000000E-04   5.000000E-04   5.000000E-04   5.000000E-04   5.000000E-04   5.000000E-04   5.000000E-04   5.000000E-04   5.000000E-04   5.000000E-04   5.000000E-04   5.000000E-04   5.000000E-04   5.000000E-04   5.000000E-04
   5.000000E-04   5.000000E-04   5.000000E-04   5.000000E-04   5.000000E-04   5.000000E-04   5.000000E-04   5.000000E-04   5.000000E-04   5.000000E-04   5.000000E-04   5.000000E-04   5.000000E-04   5.000000E-04   5.000000E-04   5.000000E-04   5.000000E-04   5.000000E-04   5.000000E-04   5.000000E-04
   5.000000E-04   5.000000E-04   5.000000E-04   5.000000E-04   5.000000E-04   5.000000E-04   5.000000E-04   5.000000E-04   5.000000E-04   5.000000E-04   5.000000E-04   5.000000E-04   5.000000E-04   5.000000E-04   5.000000E-04   5.000000E-04   5.000000E-04   5.000000E-04   5.000000E-04   5.000000E-04
   5.000000E-04   5.000000E-04   5.000000E-04   5.000000E-04   5.000000E-04   5.000000E-04   5.000000E-04   5.000000E-04   5.000000E-04   5.000000E-04   5.000000E-04   5.000000E-04   5.000000E-04   5.000000E-04   5.000000E-04   5.000000E-04   5.000000E-04   5.000000E-04   5.000000E-04   5.000000E-04
   5.000000E-04   5.000000E-04   5.000000E-04   5.000000E-04   5.000000E-04   5.000000E-04   5.000000E-04   5.000000E-04   5.000000E-04   5.000000E-04   5.000000E-04   5.000000E-04   5.000000E-04   5.000000E-04   5.000000E-04   5.000000E-04   5.000000E-04   5.000000E-04   5.000000E-04   5.000000E-04
   5.000000E-04   5.000000E-04   5.000000E-04   5.000000E-04   5.000000E-04   5.000000E-04   5.000000E-04   5.000000E-04   5.000000E-04   5.000000E-04   5.000000E-04   5.000000E-04   5.000000E-04   5.000000E-04   5.000000E-04   5.000000E-04   5.000000E-04   5.000000E-04   5.000000E-04   5.000000E-04
   5.000000E-04   5.000000E-04   5.000000E-04   5.000000E-04   5.000000E-04   5.000000E-04   5.000000E-04   5.000000E-04   5.000000E-04   5.000000E-04   5.000000E-04   5.000000E-04   5.000000E-04   5.000000E-04   5.000000E-04   5.000000E-04   5.000000E-04   5.000000E-04   5.000000E-04   5.000000E-04
   5.000000E-04   5.000000E-04   5.000000E-04   5.000000E-04   5.000000E-04   5.000000E-04   5.000000E-04   5.000000E-04   5.000000E-04   5.000000E-04   5.000000E-04   5.000000E-04   5.000000E-04   5.000000E-04   5.000000E-04   5.000000E-04   5.000000E-04   5.000000E-04   5.000000E-04   5.000000E-04
   5.000000E-04   5.000000E-04   5.000000E-04   5.000000E-04   5.000000E-04   5.000000E-04   5.000000E-04   5.000000E-04   5.000000E-04   5.000000E-04   5.000000E-04   5.000000E-04   5.000000E-04   5.000000E-04   5.000000E-04   5.000000E-04   5.000000E-04   5.000000E-04   5.000000E-04   5.000000E-04
   5.000000E-04   5.000000E-04   5.000000E-04   5.000000E-04   5.000000E-04   5.000000E-04   5.000000E-04   5.000000E-04   5.000000E-04   5.000000E-04   5.000000E-04   5.000000E-04   5.000000E-04   5.000000E-04   5.000000E-04   5.000000E-04   5.000000E-04   5.000000E-04   5.000000E-04   5.000000E-04
   5.000000E-04   5.000000E-04   5.000000E-04   5.000000E-04   5.000000E-04   5.000000E-04   5.000000E-04   5.000000E-04   5.000000E-04   5.000000E-04   5.000000E-04   5.000000E-04   5.000000E-04   5.000000E-04   5.000000E-04   5.000000E-04   5.000000E-04   5.000000E-04   5.000000E-04   5.000000E-04
   5.000000E-04   5.000000E-04   5.000000E-04   5.000000E-04   5.000000E-04   5.000000E-04   5.000000E-04   5.000000E-04   5.000000E-04   5.000000E-04   5.000000E-04   5.000000E-04   5.000000E-04   5.000000E-04   5.000000E-04   5.000000E-04   5.000000E-04   5.000000E-04   5.000000E-04   5.000000E-04
   5.000000E-04   5.000000E-04   5.000000E-04   5.000000E-04   5.000000E-04   5.000000E-04   5.000000E-04   5.000000E-04   5.000000E-04   5.000000E-04   5.000000E-04   5.000000E-04   5.000000E-04   5.000000E-04   5.000000E-04   5.000000E-04   5.000000E-04   5.000000E-04   5.000000E-04   5.000000E-04
   5.000000E-04   5.000000E-04   5.000000E-04   5.000000E-04   5.000000E-04   5.000000E-04   5.000000E-04   5.000000E-04   5.000000E-04   5.000000E-04   5.000000E-04   5.000000E-04   5.000000E-04   5.000000E-04   5.000000E-04   5.000000E-04   5.000000E-04   5.000000E-04   5.000000E-04   5.000000E-04
   5.000000E-04   5.000000E-04   5.000000E-04   5.000000E-04   5.000000E-04   5.000000E-04   5.000000E-04   5.000000E-04   5.000000E-04   5.000000E-04   5.000000E-04   5.000000E-04   5.000000E-04   5.000000E-04   5.000000E-04   5.000000E-04   5.000000E-04   5.000000E-04   5.000000E-04   5.000000E-04
         1        -1 # Stress period 2
INTERNAL               1  (20E15.6) -1 #recharge2                     
   4.000000E-03   4.000000E-03   4.000000E-03   4.000000E-03   4.000000E-03   4.000000E-03   4.000000E-03   4.000000E-03   4.000000E-03   4.000000E-03   4.000000E-03   4.000000E-03   4.000000E-03   4.000000E-03   4.000000E-03   4.000000E-03   4.000000E-03   4.000000E-03   4.000000E-03   4.000000E-03
   4.000000E-03   4.000000E-03   4.000000E-03   4.000000E-03   4.000000E-03   4.000000E-03   4.000000E-03   4.000000E-03   4.000000E-03   4.000000E-03   4.000000E-03   4.000000E-03   4.000000E-03   4.000000E-03   4.000000E-03   4.000000E-03   4.000000E-03   4.000000E-03   4.000000E-03   4.000000E-03
   4.000000E-03   4.000000E-03   4.000000E-03   4.000000E-03   4.000000E-03   4.000000E-03   4.000000E-03   4.000000E-03   4.000000E-03   4.000000E-03   4.000000E-03   4.000000E-03   4.000000E-03   4.000000E-03   4.000000E-03   4.000000E-03   4.000000E-03   4.000000E-03   4.000000E-03   4.000000E-03
   4.000000E-03   4.000000E-03   4.000000E-03   4.000000E-03   4.000000E-03   4.000000E-03   4.000000E-03   4.000000E-03   4.000000E-03   4.000000E-03   4.000000E-03   4.000000E-03   4.000000E-03   4.000000E-03   4.000000E-03   4.000000E-03   4.000000E-03   4.000000E-03   4.000000E-03   4.000000E-03
   4.000000E-03   4.000000E-03   4.000000E-03   4.000000E-03   4.000000E-03   4.000000E-03   4.000000E-03   4.000000E-03   4.000000E-03   4.000000E-03   4.000000E-03   4.000000E-03   4.000000E-03   4.000000E-03   4.000000E-03   4.000000E-03   4.000000E-03   4.000000E-03   4.000000E-03   4.000000E-03
   2.000000E-03   2.000000E-03   2.000000E-03   2.000000E-03   2.000000E-03   2.000000E-03   2.000000E-03   2.000000E-03   2.000000E-03   2.000000E-03   2.000000E-03   2.000000E-03   2.000000E-03   2.000000E-03   2.000000E-03   2.000000E-03   2.000000E-03   2.000000E-03   2.000000E-03   2.000000E-03
   2.000000E-03   2.000000E-03   2.000000E-03   2.000000E-03   2.000000E-03   2.000000E-03   2.000000E-03   2.000000E-03   2.000000E-03   2.000000E-03   2.000000E-03   2.000000E-03   2.000000E-03   2.000000E-03   2.000000E-03   2.000000E-03   2.000000E-03   2.000000E-03   2.000000E-03   2.000000E-03
   2.000000E-03   2.000000E-03   2.000000E-03   2.000000E-03   2.000000E-03   2.000000E-03   2.000000E-03   2.000000E-03   2.000000E-03   2.000000E-03   2.000000E-03   2.000000E-03   2.000000E-03   2.000000E-03   2.000000E-03   2.000000E-03   2.000000E-03   2.000000E-03   2.000000E-03   2.000000E-03
   2.000000E-03   2.000000E-03   2.000000E-03   2.000000E-03   2.000000E-03   2.000000E-03   2.000000E-03   2.000000E-03   2.000000E-03   2.000000E-03   2.000000E-03   2.000000E-03   2.000000E-03   2.000000E-03   2.000000E-03   2.000000E-03   2.000000E-03   2.000000E-03   2.000000E-03   2.000000E-03
   2.000000E-03   2.000000E-03   2.000000E-03   2.000000E-03   2.000000E-03   2.000000E-03   2.000000E-03   2.000000E-03   2.000000E-03   2.000000E-03   2.000000E-03   2.000000E-03   2.000000E-03   2.000000E-03   2.000000E-03   2.000000E-03   2.000000E-03   2.000000E-03   2.000000E-03   2.000000E-03
   1.000000E-03   1.000000E-03   1.000000E-03   1.000000E-03   1.000000E-03   1.000000E-03   1.000000E-03   1.000000E-03   1.000000E-03   1.000000E-03   1.000000E-03   1.000000E-03   1.000000E-03   1.000000E-03   1.000000E-03   1.000000E-03   1.000000E-03   1.000000E-03   1.000000E-03   1.000000E-03
   1.000000E-03   1.000000E-03   1.000000E-03   1.000000E-03   1.000000E-03   1.000000E-03   1.000000E-03   1.000000E-03   1.000000E-03   1.000000E-03   1.000000E-03   1.000000E-03   1.000000E-03   1.000000E-03   1.000000E-03   1.000000E-03   1.000000E-03   1.000000E-03   1.000000E-03   1.000000E-03
   1.000000E-03   1.000000E-03   1.000000E-03   1.000000E-03   1.000000E-03   1.000000E-03   1.000000E-03   1.000000E-03   1.000000E-03   1.000000E-03   1.000000E-03   1.000000E-03   1.000000E-03   1.000000E-03   1.000000E-03   1.000000E-03   1.000000E-03   1.000000E-03   1.000000E-03   1.000000E-03
   1.000000E-03   1.000000E-03   1.000000E-03   1.000000E-03   1.000000E-03   1.000000E-03   1.000000E-03   1.000000E-03   1.000000E-03   1.000000E-03   1.000000E-03   1.000000E-03   1.000000E-03   1.000000E-03   1.000000E-03   1.000000E-03   1.000000E-03   1.000000E-03   1.000000E-03   1.000000E-03
   1.000000E-03   1.000000E-03   1.000000E-03   1.000000E-03   1.000000E-03   1.000000E-03   1.000000E-03   1.000000E-03   1.000000E-03   1.000000E-03   1.000000E-03   1.000000E-03   1.000000E-03   1.000000E-03   1.000000E-03   1.000000E-03   1.000000E-03   1.000000E-03   1.000000E-03   1.000000E-03
         1        -1 # Stress period 3
INTERNAL               1  (20E15.6) -1 #recharge3                     
   2.000000E-03   2.000000E-03   2.000000E-03   2.000000E-03   2.000000E-03   2.000000E-03   2.000000E-03   2.000000E-03   2.000000E-03   2.000000E-03   2.000000E-03   2.000000E-03   2.000000E-03   2.000000E-03   2.000000E-03   2.000000E-03   2.000000E-03   2.000000E-03   2.000000E-03   2.000000E-03
   2.000000E-03   2.000000E-03   2.000000E-03   2.000000E-03   2.000000E-03   2.000000E-03   2.000000E-03   2.000000E-03   2.000000E-03   2.000000E-03   2.000000E-03   2.000000E-03   2.000000E-03   2.000000E-03   2.000000E-03   2.000000E-03   2.000000E-03   2.000000E-03   2.000000E-03   2.000000E-03
   2.000000E-03   2.000000E-03   2.000000E-03   2.000000E-03   2.000000E-03   2.000000E-03   2.000000E-03   2.000000E-03   2.000000E-03   2.000000E-03   2.000000E-03   2.000000E-03   2.000000E-03   2.000000E-03   2.000000E-03   2.000000E-03   2.000000E-03   2.000000E-03   2.000000E-03   2.000000E-03
   2.000000E-03   2.000000E-03   2.000000E-03   2.000000E-03   2.000000E-03   2.000000E-03   2.000000E-03   2.000000E-03   2.000000E-03   2.000000E-03   2.000000E-03   2.000000E-03   2.000000E-03   2.000000E-03   2.000000E-03   2.000000E-03   2.000000E-03   2.000000E-03   2.000000E-03   2.000000E-03
   2.000000E-03   2.000000E-03   2.000000E-03   2.000000E-03   2.000000E-03   2.000000E-03   2.000000E-03   2.000000E-03   2.000000E-03   2.000000E-03   2.000000E-03   2.000000E-03   2.000000E-03   2.000000E-03   2.000000E-03   2.000000E-03   2.000000E-03   2.000000E-03   2.000000E-03   2.000000E-03
   2.000000E-03   2.000000E-03   2.000000E-03   2.000000E-03   2.000000E-03   2.000000E-03   2.000000E-03   2.000000E-03   2.000000E-03   2.000000E-03   2.000000E-03   2.000000E-03   2.000000E-03   2.000000E-03   2.000000E-03   2.000000E-03   2.000000E-03   2.000000E-03   2.000000E-03   2.000000E-03
   2.000000E-03   2.000000E-03   2.000000E-03   2.000000E-03   2.000000E-03   2.000000E-03   2.000000E-03   2.000000E-03   2.000000E-03   2.000000E-03   2.000000E-03   2.000000E-03   2.000000E-03   2.000000E-03   2.000000E-03   2.000000E-03   2.000000E-03   2.000000E-03   2.000000E-03   2.000000E-03
   2.000000E-03   2.000000E-03   2.000000E-03   2.000000E-03   2.000000E-03   2.000000E-03   2.000000E-03   2.000000E-03   2.000000E-03   2.000000E-03   2.000000E-03   2.000000E-03   2.000000E-03   2.000000E-03   2.000000E-03   2.000000E-03   2.000000E-03   2.000000E-03   2.000000E-03   2.000000E-03
   2.000000E-03   2.000000E-03   2.000000E-03   2.000000E-03   2.000000E-03   2.000000E-03   2.000000E-03   2.000000E-03   2.000000E-03   2.000000E-03   2.000000E-03   2.000000E-03   2.000000E-03   2.000000E-03   2.000000E-03   2.000000E-03   2.000000E-03   2.000000E-03   2.000000E-03   2.000000E-03
   2.000000E-03   2.000000E-03   2.000000E-03   2.000000E-03   2.000000E-03   2.000000E-03   2.000000E-03   2.000000E-03   2.000000E-03   2.000000E-03   2.000000E-03   2.000000E-03   2.000000E-03   2.000000E-03   2.000000E-03   2.000000E-03   2.000000E-03   2.000000E-03   2.000000E-03   2.000000E-03
   2.000000E-03   2.000000E-03   2.000000E-03   2.000000E-03   2.000000E-03   2.000000E-03   2.000000E-03   2.000000E-03   2.000000E-03   2.000000E-03   2.000000E-03   2.000000E-03   2.000000E-03   2.000000E-03   2.000000E-03   2.000000E-03   2.000000E-03   2.000000E-03   2.000000E-03   2.000000E-03
   2.000000E-03   2.000000E-03   2.000000E-03   2.000000E-03   2.000000E-03   2.000000E-03   2.000000E-03   2.000000E-03   2.000000E-03   2.000000E-03   2.000000E-03   2.000000E-03   2.000000E-03   2.000000E-03   2.000000E-03   2.000000E-03   2.000000E-03   2.000000E-03   2.000000E-03   2.000000E-03
   2.000000E-03   2.000000E-03   2.000000E-03   2.000000E-03   2.000000E-03   2.000000E-03   2.000000E-03   2.000000E-03   2.000000E-03   2.000000E-03   2.000000E-03   2.000000E-03   2.000000E-03   2.000000E-03   2.000000E-03   2.000000E-03   2.000000E-03   2.000000E-03   2.000000E-03   2.000000E-03
   2.000000E-03   2.000000E-03   2.000000E-03   2.000000E-03   2.000000E-03   2.000000E-03   2.000000E-03   2.000000E-03   2.000000E-03   2.000000E-03   2.000000E-03   2.000000E-03   2.000000E-03   2.000000E-03   2.000000E-03   2.000000E-03   2.000000E-03   2.000000E-03   2.000000E-03   2.000000E-03
   2.000000E-03   2.000000E-03   2.000000E-03   2.000000E-03   2.000000E-03   2.000000E-03   2.000000E-03   2.000000E-03   2.000000E-03   2.000000E-03   2.000000E-03   2.000000E-03   2.000000E-03   2.000000E-03   2.000000E-03   2.000000E-03   2.000000E-03   2.000000E-03   2.000000E-03   2.000000E-03
         1        -1 # Stress period 4
INTERNAL               1  (20E15.6) -1 #recharge4                     
   8.000000E-04   8.000000E-04   8.000000E-04   8.000000E-04   8.000000E-04   8.000000E-04   8.000000E-04   8.000000E-04   8.000000E-04   8.000000E-04   8.000000E-04   8.000000E-04   8.000000E-04   8.000000E-04   8.000000E-04   8.000000E-04   8.000000E-04   8.000000E-04   8.000000E-04   8.000000E-04
   8.000000E-04   8.000000E-04   8.000000E-04   8.000000E-04   8.000000E-04   8.000000E-04   8.000000E-04   8.000000E-04   8.000000E-04   8.000000E-04   8.000000E-04   8.000000E-04   8.000000E-04   8.000000E-04   8.000000E-04   8.000000E-04   8.000000E-04   8.000000E-04   8.000000E-04   8.000000E-04
   8.000000E-04   8.000000E-04   8.000000E-04   8.000000E-04   8.000000E-04   8.000000E-04   8.000000E-04   8.000000E-04   8.000000E-04   8.000000E-04   8.000000E-04   8.000000E-04   8.000000E-04   8.000000E-04   8.000000E-04   8.000000E-04   8.000000E-04   8.000000E-04   8.000000E-04   8.000000E-04
   8.000000E-04   8.000000E-04   8.000000E-04   8.000000E-04   8.000000E-04   8.000000E-04   8.000000E-04   8.000000E-04   8.000000E-04   8.000000E-04   8.000000E-04   8.000000E-04   8.000000E-04   8.000000E-04   8.000000E-04   8.000000E-04   8.000000E-04   8.000000E-04   8.000000E-04   8.000000E-04
   8.000000E-04   8.000000E-04   8.000000E-04   8.000000E-04   8.000000E-04   8.000000E-04   8.000000E-04   8.000000E-04   8.000000E-04   8.000000E-04   8.000000E-04   8.000000E-04   8.000000E-04   8.000000E-04   8.000000E-04   8.000000E-04   8.000000E-04   8.000000E-04   8.000000E-04   8.000000E-04
   8.000000E-04   8.000000E-04   8.000000E-04   8.000000E-04   8.000000E-04   8.000000E-04   8.000000E-04   8.000000E-04   8.000000E-04   8.000000E-04   8.000000E-04   8.000000E-04   8.000000E-04   8.000000E-04   8.000000E-04   8.000000E-04   8.000000E-04   8.000000E-04   8.000000E-04   8.000000E-04
   8.000000E-04   8.000000E-04   8.000000E-04   8.000000E-04   8.000000E-04   8.000000E-04   8.000000E-04   8.000000E-04   8.000000E-04   8.000000E-04   8.000000E-04   8.000000E-04   8.000000E-04   8.000000E-04   8.000000E-04   8.000000E-04   8.000000E-04   8.000000E-04   8.000000E-04   8.000000E-04
   8.000000E-04   8.000000E-04   8.000000E-04   8.000000E-04   8.000000E-04   8.000000E-04   8.000000E-04   8.000000E-04   8.000000E-04   8.000000E-04   8.000000E-04   8.000000E-04   8.000000E-04   8.000000E-04   8.000000E-04   8.000000E-04   8.000000E-04   8.000000E-04   8.000000E-04   8.000000E-04
   8.000000E-04   8.000000E-04   8.000000E-04   8.000000E-04   8.000000E-04   8.000000E-04   8.000000E-04   8.000000E-04   8.000000E-04   8.000000E-04   8.000000E-04   8.000000E-04   8.000000E-04   8.000000E-04   8.000000E-04   8.000000E-04   8.000000E-04   8.000000E-04   8.000000E-04   8.000000E-04
   8.000000E-04   8.000000E-04   8.000000E-04   8.000000E-04   8.000000E-04   8.000000E-04   8.000000E-04   8.000000E-04   8.000000E-04   8.000000E-04   8.000000E-04   8.000000E-04   8.000000E-04   8.000000E-04   8.000000E-04   8.000000E-04   8.000000E-04   8.000000E-04   8.000000E-04   8.000000E-04
   8.000000E-04   8.000000E-04   8.000000E-04   8.000000E-04   8.000000E-04   8.000000E-04   8.000000E-04   8.000000E-04   8.000000E-04   8.000000E-04   8.000000E-04   8.000000E-04   8.000000E-04   8.000000E-04   8.000000E-04   8.000000E-04   8.000000E-04   8.000000E-04   8.000000E-04   8.000000E-04
   8.000000E-04   8.000000E-04   8.000000E-04   8.000000E-04   8.000000E-04   8.000000E-04   8.000000E-04   8.000000E-04   8.000000E-04   8.000000E-04   8.000000E-04   8.000000E-04   8.000000E-04   8.000000E-04   8.000000E-04   8.000000E-04   8.000000E-04   8.000000E-04   8.000000E-04   8.000000E-04
   8.000000E-04   8.000000E-04   8.000000E-04   8.000000E-04   8.000000E-04   8.000000E-04   8.000000E-04   8.000000E-04   8.000000E-04   8.000000E-04   8.000000E-04   8.000000E-04   8.000000E-04   8.000000E-04   8.000000E-04   8.000000E-04   8.000000E-04   8.000000E-04   8.000000E-04   8.000000E-04
   8.000000E-04   8.000000E-04   8.000000E-04   8.000000E-04   8.000000E-04   8.000000E-04   8.000000E-04   8.000000E-04   8.000000E-04   8.000000E-04   8.000000E-04   8.000000E-04   8.000000E-04   8.000000E-04   8.000000E-04   8.000000E-04   8.000000E-04   8.000000E-04   8.000000E-04   8.000000E-04
   8.000000E-04   8.000000E-04   8.000000E-04   8.000000E-04   8.000000E-04   8.000000E-04   8.000000E-04   8.000000E-04   8.000000E-04   8.000000E-04   8.000000E-04   8.000000E-04   8.000000E-04   8.000000E-04   8.000000E-04   8.000000E-04   8.000000E-04   8.000000E-04   8.000000E-04   8.000000E-04
