# File generated by Flopy version 3.9.3 on 08/08/2025 at 18:27:36.
BEGIN options
  SAVE_FLOWS
  NEWTON
END options

BEGIN packages
  DIS6  budget_example.dis  dis
  NPF6  budget_example.npf  npf
  STO6  budget_example.sto  sto
  IC6  budget_example.ic  ic
  CHD6  budget_example.chd  chd_0
  WEL6  budget_example.wel  wel_0
  OC6  budget_example.oc  oc
END packages

