# File generated by Flopy version 3.9.3 on 08/08/2025 at 18:27:36.
BEGIN options
END options

BEGIN nonlinear
  OUTER_DVCLOSE  1.00000000E-05
END nonlinear

BEGIN linear
  INNER_DVCLOSE  1.00000000E-06
  LINEAR_ACCELERATION  bicgstab
END linear

