# File generated by Flopy version 3.9.3 on 08/08/2025 at 18:27:36.
BEGIN options
END options

BEGIN dimensions
  NPER  2
END dimensions

BEGIN perioddata
       1.00000000  1       1.00000000
     100.00000000  1       1.00000000
END perioddata

