# File generated by Flopy version 3.9.3 on 08/08/2025 at 18:27:36.
BEGIN options
END options

BEGIN dimensions
  MAXBOUND  30
END dimensions

BEGIN period  1
  1 1 1 1.00000000E+01
  1 1 10 5.00000000E+00
  1 2 1 1.00000000E+01
  1 2 10 5.00000000E+00
  1 3 1 1.00000000E+01
  1 3 10 5.00000000E+00
  1 4 1 1.00000000E+01
  1 4 10 5.00000000E+00
  1 5 1 1.00000000E+01
  1 5 10 5.00000000E+00
  1 6 1 1.00000000E+01
  1 6 10 5.00000000E+00
  1 7 1 1.00000000E+01
  1 7 10 5.00000000E+00
  1 8 1 1.00000000E+01
  1 8 10 5.00000000E+00
  1 9 1 1.00000000E+01
  1 9 10 5.00000000E+00
  1 10 1 1.00000000E+01
  1 10 10 5.00000000E+00
  1 11 1 1.00000000E+01
  1 11 10 5.00000000E+00
  1 12 1 1.00000000E+01
  1 12 10 5.00000000E+00
  1 13 1 1.00000000E+01
  1 13 10 5.00000000E+00
  1 14 1 1.00000000E+01
  1 14 10 5.00000000E+00
  1 15 1 1.00000000E+01
  1 15 10 5.00000000E+00
END period  1

