# PCG package for MODFLOW-2005 generated by Flopy 3.9.3
100 50 1 0
0.001 0.01 1.0 0 0 3 1.0 
