# File generated by Flopy version 3.9.3 on 08/08/2025 at 18:27:40.
BEGIN options
END options

BEGIN timing
  TDIS6  splitter_demo.tdis
END timing

BEGIN models
  gwf6  splitter_model.nam  splitter_model
END models

BEGIN exchanges
END exchanges

BEGIN solutiongroup  1
  ims6  splitter_demo.ims  splitter_model
END solutiongroup  1

