# Name file for MODFLOW-2005, generated by Flopy version 3.9.3.
#xll:0.0; yll:0.0; rotation:0.0; units:meters; lenuni:2; start_datetime:1-1-1970
LIST               2  mnw_convergence_test.list
DIS               11  mnw_convergence_test.dis
BAS6              13  mnw_convergence_test.bas
LPF               15  mnw_convergence_test.lpf
MNW2              34  mnw_convergence_test.mnw2
OC                14  mnw_convergence_test.oc
PCG               27  mnw_convergence_test.pcg
DATA(BINARY)      53  mnw_convergence_test.cbc REPLACE
DATA(BINARY)      51  mnw_convergence_test.hds REPLACE
