# File generated by Flopy version 3.9.3 on 08/08/2025 at 18:27:35.
BEGIN options
  PRINT_OPTION  summary
  COMPLEXITY  simple
END options

BEGIN nonlinear
  OUTER_DVCLOSE  1.00000000E-06
END nonlinear

BEGIN linear
  INNER_DVCLOSE  1.00000000E-06
END linear

