# DIS package for MODFLOW-2005 generated by Flopy 3.9.3
         5        21        21         3         4         2
  0  0  0  0  0
INTERNAL               1  (21E15.6) -1 #delr                          
   5.000000E+02   5.000000E+02   5.000000E+02   5.000000E+02   5.000000E+02   5.000000E+02   5.000000E+02   5.000000E+02   5.000000E+02   5.000000E+02   5.000000E+02   5.000000E+02   5.000000E+02   5.000000E+02   5.000000E+02   5.000000E+02   5.000000E+02   5.000000E+02   5.000000E+02   5.000000E+02   5.000000E+02
INTERNAL               1  (21E15.6) -1 #delc                          
   5.000000E+02   5.000000E+02   5.000000E+02   5.000000E+02   5.000000E+02   5.000000E+02   5.000000E+02   5.000000E+02   5.000000E+02   5.000000E+02   5.000000E+02   5.000000E+02   5.000000E+02   5.000000E+02   5.000000E+02   5.000000E+02   5.000000E+02   5.000000E+02   5.000000E+02   5.000000E+02   5.000000E+02
CONSTANT    1.000000E+02                           #model_top                     
CONSTANT    8.000000E+01                           #botm layer 1                  
CONSTANT    6.000000E+01                           #botm layer 2                  
CONSTANT    4.000000E+01                           #botm layer 3                  
CONSTANT    2.000000E+01                           #botm layer 4                  
CONSTANT    0.000000E+00                           #botm layer 5                  
    365.000000             1  1.000000  SS
    365.000000             1  1.000000  TR
    365.000000             1  1.000000  TR
