# LPF package for MODFLOW-2005 generated by Flopy 3.9.3
         0      -999         0  
         1         0         0         0         0
         0         0         0         0         0
   1.000000E+00   1.000000E+00   1.000000E+00   1.000000E+00   1.000000E+00
         0         0         0         0         0
         0         0         0         0         0
CONSTANT    5.000000E+01                           #hk layer 1                    
CONSTANT    1.000000E+01                           #vka1                          
CONSTANT    1.000000E-05                           #ss layer 1                    
CONSTANT    2.000000E-01                           #sy layer 1                    
CONSTANT    1.000000E-02                           #hk layer 2                    
CONSTANT    1.000000E-03                           #vka2                          
CONSTANT    1.000000E-05                           #ss layer 2                    
CONSTANT    2.500000E+01                           #hk layer 3                    
CONSTANT    5.000000E+00                           #vka3                          
CONSTANT    1.000000E-05                           #ss layer 3                    
CONSTANT    1.000000E-02                           #hk layer 4                    
CONSTANT    1.000000E-03                           #vka4                          
CONSTANT    1.000000E-05                           #ss layer 4                    
CONSTANT    1.000000E+02                           #hk layer 5                    
CONSTANT    2.000000E+01                           #vka5                          
CONSTANT    1.000000E-05                           #ss layer 5                    
