# MNW2 package for MODFLOW-2005 generated by Flopy 3.9.3
1 0 0
well1 3
            skin -1 0 0 0
              -1.0000000E+00    2.0000000E+00    5.0000000E+00
            3 13 13    1.0000000E+00
            4 13 13    5.0000000E-01
            5 13 13    5.0000000E-01
               6.2000000E+01
1  Stress Period 1
well1   -5.0000000E+03
-1  Stress Period 2
-1  Stress Period 3
