# Name file for MODFLOW-2005, generated by Flopy version 3.9.3.
#xll:0.0; yll:0.0; rotation:0.0; units:meters; lenuni:2; start_datetime:1-1-1970
LIST               2  mp6_demo.list
DIS               11  mp6_demo.dis
BAS6              13  mp6_demo.bas
LPF               15  mp6_demo.lpf
RCH               19  mp6_demo.rch
WEL               20  mp6_demo.wel
MNW2              34  mp6_demo.mnw2
OC                14  mp6_demo.oc
PCG               27  mp6_demo.pcg
DATA(BINARY)      51  mp6_demo.hds REPLACE
