# BAS6 package for MODFLOW-2005 generated by Flopy 3.9.3
FREE
INTERNAL               1     (4I10) -1 #ibound layer 1                
        -1         1         1        -1
        -1         1         1        -1
        -1         1         1        -1
        -1         1         1        -1
        -1         1         1        -1
INTERNAL               1     (4I10) -1 #ibound layer 2                
        -1         1         1        -1
        -1         1         1        -1
        -1         1         1        -1
        -1         1         1        -1
        -1         1         1        -1
INTERNAL               1     (4I10) -1 #ibound layer 3                
        -1         1         1        -1
        -1         1         1        -1
        -1         1         1        -1
        -1         1         1        -1
        -1         1         1        -1
   -999.99
INTERNAL               1   (4E15.6) -1 #strt layer 1                  
   4.500000E+01   4.166667E+01   3.833333E+01   3.500000E+01
   4.500000E+01   4.166667E+01   3.833333E+01   3.500000E+01
   4.500000E+01   4.166667E+01   3.833333E+01   3.500000E+01
   4.500000E+01   4.166667E+01   3.833333E+01   3.500000E+01
   4.500000E+01   4.166667E+01   3.833333E+01   3.500000E+01
INTERNAL               1   (4E15.6) -1 #strt layer 2                  
   4.500000E+01   4.166667E+01   3.833333E+01   3.500000E+01
   4.500000E+01   4.166667E+01   3.833333E+01   3.500000E+01
   4.500000E+01   4.166667E+01   3.833333E+01   3.500000E+01
   4.500000E+01   4.166667E+01   3.833333E+01   3.500000E+01
   4.500000E+01   4.166667E+01   3.833333E+01   3.500000E+01
INTERNAL               1   (4E15.6) -1 #strt layer 3                  
   4.500000E+01   4.166667E+01   3.833333E+01   3.500000E+01
   4.500000E+01   4.166667E+01   3.833333E+01   3.500000E+01
   4.500000E+01   4.166667E+01   3.833333E+01   3.500000E+01
   4.500000E+01   4.166667E+01   3.833333E+01   3.500000E+01
   4.500000E+01   4.166667E+01   3.833333E+01   3.500000E+01
