# Name file for MODFLOW-2005, generated by Flopy version 3.9.3.
#xll:0.0; yll:0.0; rotation:0.0; units:meters; lenuni:2; start_datetime:1-1-1970
LIST               2  sfr_stream_flow.list
DIS               11  sfr_stream_flow.dis
BAS6              13  sfr_stream_flow.bas
LPF               15  sfr_stream_flow.lpf
SFR               17  sfr_stream_flow.sfr
OC                14  sfr_stream_flow.oc
PCG               27  sfr_stream_flow.pcg
DATA(BINARY)      53  sfr_stream_flow.cbc REPLACE
DATA(BINARY)      51  sfr_stream_flow.hds REPLACE
