# File generated by Flopy version 3.9.3 on 08/08/2025 at 18:27:40.
BEGIN options
END options

BEGIN dimensions
  MAXBOUND  20
END dimensions

BEGIN period  1
  1 1 1 5.00000000E+01
  1 2 1 5.00000000E+01
  1 3 1 5.00000000E+01
  1 4 1 5.00000000E+01
  1 5 1 5.00000000E+01
  1 6 1 5.00000000E+01
  1 7 1 5.00000000E+01
  1 8 1 5.00000000E+01
  1 9 1 5.00000000E+01
  1 10 1 5.00000000E+01
  1 1 10 4.00000000E+01
  1 2 10 4.00000000E+01
  1 3 10 4.00000000E+01
  1 4 10 4.00000000E+01
  1 5 10 4.00000000E+01
  1 6 10 4.00000000E+01
  1 7 10 4.00000000E+01
  1 8 10 4.00000000E+01
  1 9 10 4.00000000E+01
  1 10 10 4.00000000E+01
END period  1

