# Name file for MODFLOW-2005, generated by Flopy version 3.9.3.
#xll:0.0; yll:0.0; rotation:0.0; units:meters; lenuni:2; start_datetime:1-1-1970
LIST               2  wel_demo.list
DIS               11  wel_demo.dis
BAS6              13  wel_demo.bas
LPF               15  wel_demo.lpf
WEL               20  wel_demo.wel
OC                14  wel_demo.oc
PCG               27  wel_demo.pcg
DATA(BINARY)     102  wel_demo.cbc REPLACE
DATA(BINARY)      51  wel_demo.hds REPLACE
