# File generated by Flopy version 3.9.3 on 08/07/2025 at 00:02:57.
BEGIN options
  MEMORY_PRINT_OPTION  all
END options

BEGIN timing
  TDIS6  sim.tdis
END timing

BEGIN models
  gwf6  tutorial_model.nam  tutorial_model
END models

BEGIN exchanges
END exchanges

BEGIN solutiongroup  1
  ims6  sim.ims  tutorial_model
END solutiongroup  1

