# File generated by Flopy version 3.9.3 on 08/07/2025 at 00:02:57.
BEGIN options
  BUDGET  FILEOUT  tutorial_model.cbc
  HEAD  FILEOUT  tutorial_model.hds
  HEAD  PRINT_FORMAT  COLUMNS  10  WIDTH  15  DIGITS  6  GENERAL
END options

BEGIN period  1
  SAVE  HEAD  ALL
  SAVE  BUDGET  ALL
  PRINT  HEAD  LAST
  PRINT  BUDGET  LAST
END period  1

