# File generated by Flopy version 3.9.3 on 08/07/2025 at 00:02:57.
BEGIN options
END options

BEGIN dimensions
  NLAY  3
  NROW  10
  NCOL  10
END dimensions

BEGIN griddata
  delr
    CONSTANT     100.00000000
  delc
    CONSTANT     100.00000000
  top
    CONSTANT       0.00000000
  botm  LAYERED
    CONSTANT     -10.00000000
    CONSTANT     -20.00000000
    CONSTANT     -30.00000000
END griddata

