# BAS6 package for MODFLOW-2005 generated by Flopy 3.9.3
FREE
INTERNAL               1    (35I10) -1 #ibound layer 1                
        -1        -1        -1        -1        -1        -1        -1        -1        -1        -1        -1        -1        -1        -1        -1        -1        -1        -1        -1        -1        -1        -1        -1        -1        -1        -1        -1        -1        -1        -1        -1        -1        -1        -1        -1
        -1         1         1         1         1         1         1         1         1         1         1         1         1         1         1         1         1         1         1         1         1         1         1         1         1         1         1         1         1         1         1         1         1         1        -1
        -1         1         1         1         1         1         1         1         1         1         1         1         1         1         1         1         1         1         1         1         1         1         1         1         1         1         1         1         1         1         1         1         1         1        -1
        -1         1         1         1         1         1         1         1         1         1         1         1         1         1         1         1         1         1         1         1         1         1         1         1         1         1         1         1         1         1         1         1         1         1        -1
        -1         1         1         1         1         1         1         1         1         1         1         1         1         1         1         1         1         1         1         1         1         1         1         1         1         1         1         1         1         1         1         1         1         1        -1
        -1         1         1         1         1         1         1         1         1         1         1         1         1         1         1         1         1         1         1         1         1         1         1         1         1         1         1         1         1         1         1         1         1         1        -1
        -1         1         1         1         1         1         1         1         1         1         1         1         1         1         1         1         1         1         1         1         1         1         1         1         1         1         1         1         1         1         1         1         1         1        -1
        -1         1         1         1         1         1         1         1         1         1         1         1         1         1         1         1         1         1         1         1         1         1         1         1         1         1         1         1         1         1         1         1         1         1        -1
        -1         1         1         1         1         1         1         1         1         1         1         1         1         1         1         1         1         1         1         1         1         1         1         1         1         1         1         1         1         1         1         1         1         1        -1
        -1         1         1         1         1         1         1         1         1         1         1         1         1         1         1         1         1         1         1         1         1         1         1         1         1         1         1         1         1         1         1         1         1         1        -1
        -1         1         1         1         1         1         1         1         1         1         1         1         1         1         1         1         1         1         1         1         1         1         1         1         1         1         1         1         1         1         1         1         1         1        -1
        -1         1         1         1         1         1         1         1         1         1         1         1         1         1         1         1         1         1         1         1         1         1         1         1         1         1         1         1         1         1         1         1         1         1        -1
        -1         1         1         1         1         1         1         1         1         1         1         1         1         1         1         1         1         1         1         1         1         1         1         1         1         1         1         1         1         1         1         1         1         1        -1
        -1         1         1         1         1         1         1         1         1         1         1         1         1         1         1         1         1         1         1         1         1         1         1         1         1         1         1         1         1         1         1         1         1         1        -1
        -1         1         1         1         1         1         1         1         1         1         1         1         1         1         1         1         1         1         1         1         1         1         1         1         1         1         1         1         1         1         1         1         1         1        -1
        -1         1         1         1         1         1         1         1         1         1         1         1         1         1         1         1         1         1         1         1         1         1         1         1         1         1         1         1         1         1         1         1         1         1        -1
        -1         1         1         1         1         1         1         1         1         1         1         1         1         1         1         1         1         1         1         1         1         1         1         1         1         1         1         1         1         1         1         1         1         1        -1
        -1         1         1         1         1         1         1         1         1         1         1         1         1         1         1         1         1         1         1         1         1         1         1         1         1         1         1         1         1         1         1         1         1         1        -1
        -1         1         1         1         1         1         1         1         1         1         1         1         1         1         1         1         1         1         1         1         1         1         1         1         1         1         1         1         1         1         1         1         1         1        -1
        -1         1         1         1         1         1         1         1         1         1         1         1         1         1         1         1         1         1         1         1         1         1         1         1         1         1         1         1         1         1         1         1         1         1        -1
        -1         1         1         1         1         1         1         1         1         1         1         1         1         1         1         1         1         1         1         1         1         1         1         1         1         1         1         1         1         1         1         1         1         1        -1
        -1         1         1         1         1         1         1         1         1         1         1         1         1         1         1         1         1         1         1         1         1         1         1         1         1         1         1         1         1         1         1         1         1         1        -1
        -1         1         1         1         1         1         1         1         1         1         1         1         1         1         1         1         1         1         1         1         1         1         1         1         1         1         1         1         1         1         1         1         1         1        -1
        -1         1         1         1         1         1         1         1         1         1         1         1         1         1         1         1         1         1         1         1         1         1         1         1         1         1         1         1         1         1         1         1         1         1        -1
        -1        -1        -1        -1        -1        -1        -1        -1        -1        -1        -1        -1        -1        -1        -1        -1        -1        -1        -1        -1        -1        -1        -1        -1        -1        -1        -1        -1        -1        -1        -1        -1        -1        -1        -1
   -999.99
INTERNAL               1  (35E15.6) -1 #strt layer 1                  
   9.000000E+01   8.800000E+01   8.800000E+01   8.800000E+01   8.800000E+01   8.800000E+01   8.800000E+01   8.800000E+01   8.800000E+01   8.800000E+01   8.800000E+01   8.800000E+01   8.800000E+01   8.800000E+01   8.800000E+01   8.800000E+01   8.800000E+01   8.800000E+01   8.800000E+01   8.800000E+01   8.800000E+01   8.800000E+01   8.800000E+01   8.800000E+01   8.800000E+01   8.800000E+01   8.800000E+01   8.800000E+01   8.800000E+01   8.800000E+01   8.800000E+01   8.800000E+01   8.800000E+01   8.800000E+01   8.000000E+01
   9.000000E+01   8.500000E+01   8.500000E+01   8.500000E+01   8.500000E+01   8.500000E+01   8.500000E+01   8.500000E+01   8.500000E+01   8.500000E+01   8.500000E+01   8.500000E+01   8.500000E+01   8.500000E+01   8.500000E+01   8.500000E+01   8.500000E+01   8.500000E+01   8.500000E+01   8.500000E+01   8.500000E+01   8.500000E+01   8.500000E+01   8.500000E+01   8.500000E+01   8.500000E+01   8.500000E+01   8.500000E+01   8.500000E+01   8.500000E+01   8.500000E+01   8.500000E+01   8.500000E+01   8.500000E+01   8.000000E+01
   9.000000E+01   8.500000E+01   8.500000E+01   8.500000E+01   8.500000E+01   8.500000E+01   8.500000E+01   8.500000E+01   8.500000E+01   8.500000E+01   8.500000E+01   8.500000E+01   8.500000E+01   8.500000E+01   8.500000E+01   8.500000E+01   8.500000E+01   8.500000E+01   8.500000E+01   8.500000E+01   8.500000E+01   8.500000E+01   8.500000E+01   8.500000E+01   8.500000E+01   8.500000E+01   8.500000E+01   8.500000E+01   8.500000E+01   8.500000E+01   8.500000E+01   8.500000E+01   8.500000E+01   8.500000E+01   8.000000E+01
   9.000000E+01   8.500000E+01   8.500000E+01   8.500000E+01   8.500000E+01   8.500000E+01   8.500000E+01   8.500000E+01   8.500000E+01   8.500000E+01   8.500000E+01   8.500000E+01   8.500000E+01   8.500000E+01   8.500000E+01   8.500000E+01   8.500000E+01   8.500000E+01   8.500000E+01   8.500000E+01   8.500000E+01   8.500000E+01   8.500000E+01   8.500000E+01   8.500000E+01   8.500000E+01   8.500000E+01   8.500000E+01   8.500000E+01   8.500000E+01   8.500000E+01   8.500000E+01   8.500000E+01   8.500000E+01   8.000000E+01
   9.000000E+01   8.500000E+01   8.500000E+01   8.500000E+01   8.500000E+01   8.500000E+01   8.500000E+01   8.500000E+01   8.500000E+01   8.500000E+01   8.500000E+01   8.500000E+01   8.500000E+01   8.500000E+01   8.500000E+01   8.500000E+01   8.500000E+01   8.500000E+01   8.500000E+01   8.500000E+01   8.500000E+01   8.500000E+01   8.500000E+01   8.500000E+01   8.500000E+01   8.500000E+01   8.500000E+01   8.500000E+01   8.500000E+01   8.500000E+01   8.500000E+01   8.500000E+01   8.500000E+01   8.500000E+01   8.000000E+01
   9.000000E+01   8.500000E+01   8.500000E+01   8.500000E+01   8.500000E+01   8.500000E+01   8.500000E+01   8.500000E+01   8.500000E+01   8.500000E+01   8.500000E+01   8.500000E+01   8.500000E+01   8.500000E+01   8.500000E+01   8.500000E+01   8.500000E+01   8.500000E+01   8.500000E+01   8.500000E+01   8.500000E+01   8.500000E+01   8.500000E+01   8.500000E+01   8.500000E+01   8.500000E+01   8.500000E+01   8.500000E+01   8.500000E+01   8.500000E+01   8.500000E+01   8.500000E+01   8.500000E+01   8.500000E+01   8.000000E+01
   9.000000E+01   8.500000E+01   8.500000E+01   8.500000E+01   8.500000E+01   8.500000E+01   8.500000E+01   8.500000E+01   8.500000E+01   8.500000E+01   8.500000E+01   8.500000E+01   8.500000E+01   8.500000E+01   8.500000E+01   8.500000E+01   8.500000E+01   8.500000E+01   8.500000E+01   8.500000E+01   8.500000E+01   8.500000E+01   8.500000E+01   8.500000E+01   8.500000E+01   8.500000E+01   8.500000E+01   8.500000E+01   8.500000E+01   8.500000E+01   8.500000E+01   8.500000E+01   8.500000E+01   8.500000E+01   8.000000E+01
   9.000000E+01   8.500000E+01   8.500000E+01   8.500000E+01   8.500000E+01   8.500000E+01   8.500000E+01   8.500000E+01   8.500000E+01   8.500000E+01   8.500000E+01   8.500000E+01   8.500000E+01   8.500000E+01   8.500000E+01   8.500000E+01   8.500000E+01   8.500000E+01   8.500000E+01   8.500000E+01   8.500000E+01   8.500000E+01   8.500000E+01   8.500000E+01   8.500000E+01   8.500000E+01   8.500000E+01   8.500000E+01   8.500000E+01   8.500000E+01   8.500000E+01   8.500000E+01   8.500000E+01   8.500000E+01   8.000000E+01
   9.000000E+01   8.500000E+01   8.500000E+01   8.500000E+01   8.500000E+01   8.500000E+01   8.500000E+01   8.500000E+01   8.500000E+01   8.500000E+01   8.500000E+01   8.500000E+01   8.500000E+01   8.500000E+01   8.500000E+01   8.500000E+01   8.500000E+01   8.500000E+01   8.500000E+01   8.500000E+01   8.500000E+01   8.500000E+01   8.500000E+01   8.500000E+01   8.500000E+01   8.500000E+01   8.500000E+01   8.500000E+01   8.500000E+01   8.500000E+01   8.500000E+01   8.500000E+01   8.500000E+01   8.500000E+01   8.000000E+01
   9.000000E+01   8.500000E+01   8.500000E+01   8.500000E+01   8.500000E+01   8.500000E+01   8.500000E+01   8.500000E+01   8.500000E+01   8.500000E+01   8.500000E+01   8.500000E+01   8.500000E+01   8.500000E+01   8.500000E+01   8.500000E+01   8.500000E+01   8.500000E+01   8.500000E+01   8.500000E+01   8.500000E+01   8.500000E+01   8.500000E+01   8.500000E+01   8.500000E+01   8.500000E+01   8.500000E+01   8.500000E+01   8.500000E+01   8.500000E+01   8.500000E+01   8.500000E+01   8.500000E+01   8.500000E+01   8.000000E+01
   9.000000E+01   8.500000E+01   8.500000E+01   8.500000E+01   8.500000E+01   8.500000E+01   8.500000E+01   8.500000E+01   8.500000E+01   8.500000E+01   8.500000E+01   8.500000E+01   8.500000E+01   8.500000E+01   8.500000E+01   8.500000E+01   8.500000E+01   8.500000E+01   8.500000E+01   8.500000E+01   8.500000E+01   8.500000E+01   8.500000E+01   8.500000E+01   8.500000E+01   8.500000E+01   8.500000E+01   8.500000E+01   8.500000E+01   8.500000E+01   8.500000E+01   8.500000E+01   8.500000E+01   8.500000E+01   8.000000E+01
   9.000000E+01   8.500000E+01   8.500000E+01   8.500000E+01   8.500000E+01   8.500000E+01   8.500000E+01   8.500000E+01   8.500000E+01   8.500000E+01   8.500000E+01   8.500000E+01   8.500000E+01   8.500000E+01   8.500000E+01   8.500000E+01   8.500000E+01   8.500000E+01   8.500000E+01   8.500000E+01   8.500000E+01   8.500000E+01   8.500000E+01   8.500000E+01   8.500000E+01   8.500000E+01   8.500000E+01   8.500000E+01   8.500000E+01   8.500000E+01   8.500000E+01   8.500000E+01   8.500000E+01   8.500000E+01   8.000000E+01
   9.000000E+01   8.500000E+01   8.500000E+01   8.500000E+01   8.500000E+01   8.500000E+01   8.500000E+01   8.500000E+01   8.500000E+01   8.500000E+01   8.500000E+01   8.500000E+01   8.500000E+01   8.500000E+01   8.500000E+01   8.500000E+01   8.500000E+01   8.500000E+01   8.500000E+01   8.500000E+01   8.500000E+01   8.500000E+01   8.500000E+01   8.500000E+01   8.500000E+01   8.500000E+01   8.500000E+01   8.500000E+01   8.500000E+01   8.500000E+01   8.500000E+01   8.500000E+01   8.500000E+01   8.500000E+01   8.000000E+01
   9.000000E+01   8.500000E+01   8.500000E+01   8.500000E+01   8.500000E+01   8.500000E+01   8.500000E+01   8.500000E+01   8.500000E+01   8.500000E+01   8.500000E+01   8.500000E+01   8.500000E+01   8.500000E+01   8.500000E+01   8.500000E+01   8.500000E+01   8.500000E+01   8.500000E+01   8.500000E+01   8.500000E+01   8.500000E+01   8.500000E+01   8.500000E+01   8.500000E+01   8.500000E+01   8.500000E+01   8.500000E+01   8.500000E+01   8.500000E+01   8.500000E+01   8.500000E+01   8.500000E+01   8.500000E+01   8.000000E+01
   9.000000E+01   8.500000E+01   8.500000E+01   8.500000E+01   8.500000E+01   8.500000E+01   8.500000E+01   8.500000E+01   8.500000E+01   8.500000E+01   8.500000E+01   8.500000E+01   8.500000E+01   8.500000E+01   8.500000E+01   8.500000E+01   8.500000E+01   8.500000E+01   8.500000E+01   8.500000E+01   8.500000E+01   8.500000E+01   8.500000E+01   8.500000E+01   8.500000E+01   8.500000E+01   8.500000E+01   8.500000E+01   8.500000E+01   8.500000E+01   8.500000E+01   8.500000E+01   8.500000E+01   8.500000E+01   8.000000E+01
   9.000000E+01   8.500000E+01   8.500000E+01   8.500000E+01   8.500000E+01   8.500000E+01   8.500000E+01   8.500000E+01   8.500000E+01   8.500000E+01   8.500000E+01   8.500000E+01   8.500000E+01   8.500000E+01   8.500000E+01   8.500000E+01   8.500000E+01   8.500000E+01   8.500000E+01   8.500000E+01   8.500000E+01   8.500000E+01   8.500000E+01   8.500000E+01   8.500000E+01   8.500000E+01   8.500000E+01   8.500000E+01   8.500000E+01   8.500000E+01   8.500000E+01   8.500000E+01   8.500000E+01   8.500000E+01   8.000000E+01
   9.000000E+01   8.500000E+01   8.500000E+01   8.500000E+01   8.500000E+01   8.500000E+01   8.500000E+01   8.500000E+01   8.500000E+01   8.500000E+01   8.500000E+01   8.500000E+01   8.500000E+01   8.500000E+01   8.500000E+01   8.500000E+01   8.500000E+01   8.500000E+01   8.500000E+01   8.500000E+01   8.500000E+01   8.500000E+01   8.500000E+01   8.500000E+01   8.500000E+01   8.500000E+01   8.500000E+01   8.500000E+01   8.500000E+01   8.500000E+01   8.500000E+01   8.500000E+01   8.500000E+01   8.500000E+01   8.000000E+01
   9.000000E+01   8.500000E+01   8.500000E+01   8.500000E+01   8.500000E+01   8.500000E+01   8.500000E+01   8.500000E+01   8.500000E+01   8.500000E+01   8.500000E+01   8.500000E+01   8.500000E+01   8.500000E+01   8.500000E+01   8.500000E+01   8.500000E+01   8.500000E+01   8.500000E+01   8.500000E+01   8.500000E+01   8.500000E+01   8.500000E+01   8.500000E+01   8.500000E+01   8.500000E+01   8.500000E+01   8.500000E+01   8.500000E+01   8.500000E+01   8.500000E+01   8.500000E+01   8.500000E+01   8.500000E+01   8.000000E+01
   9.000000E+01   8.500000E+01   8.500000E+01   8.500000E+01   8.500000E+01   8.500000E+01   8.500000E+01   8.500000E+01   8.500000E+01   8.500000E+01   8.500000E+01   8.500000E+01   8.500000E+01   8.500000E+01   8.500000E+01   8.500000E+01   8.500000E+01   8.500000E+01   8.500000E+01   8.500000E+01   8.500000E+01   8.500000E+01   8.500000E+01   8.500000E+01   8.500000E+01   8.500000E+01   8.500000E+01   8.500000E+01   8.500000E+01   8.500000E+01   8.500000E+01   8.500000E+01   8.500000E+01   8.500000E+01   8.000000E+01
   9.000000E+01   8.500000E+01   8.500000E+01   8.500000E+01   8.500000E+01   8.500000E+01   8.500000E+01   8.500000E+01   8.500000E+01   8.500000E+01   8.500000E+01   8.500000E+01   8.500000E+01   8.500000E+01   8.500000E+01   8.500000E+01   8.500000E+01   8.500000E+01   8.500000E+01   8.500000E+01   8.500000E+01   8.500000E+01   8.500000E+01   8.500000E+01   8.500000E+01   8.500000E+01   8.500000E+01   8.500000E+01   8.500000E+01   8.500000E+01   8.500000E+01   8.500000E+01   8.500000E+01   8.500000E+01   8.000000E+01
   9.000000E+01   8.500000E+01   8.500000E+01   8.500000E+01   8.500000E+01   8.500000E+01   8.500000E+01   8.500000E+01   8.500000E+01   8.500000E+01   8.500000E+01   8.500000E+01   8.500000E+01   8.500000E+01   8.500000E+01   8.500000E+01   8.500000E+01   8.500000E+01   8.500000E+01   8.500000E+01   8.500000E+01   8.500000E+01   8.500000E+01   8.500000E+01   8.500000E+01   8.500000E+01   8.500000E+01   8.500000E+01   8.500000E+01   8.500000E+01   8.500000E+01   8.500000E+01   8.500000E+01   8.500000E+01   8.000000E+01
   9.000000E+01   8.500000E+01   8.500000E+01   8.500000E+01   8.500000E+01   8.500000E+01   8.500000E+01   8.500000E+01   8.500000E+01   8.500000E+01   8.500000E+01   8.500000E+01   8.500000E+01   8.500000E+01   8.500000E+01   8.500000E+01   8.500000E+01   8.500000E+01   8.500000E+01   8.500000E+01   8.500000E+01   8.500000E+01   8.500000E+01   8.500000E+01   8.500000E+01   8.500000E+01   8.500000E+01   8.500000E+01   8.500000E+01   8.500000E+01   8.500000E+01   8.500000E+01   8.500000E+01   8.500000E+01   8.000000E+01
   9.000000E+01   8.500000E+01   8.500000E+01   8.500000E+01   8.500000E+01   8.500000E+01   8.500000E+01   8.500000E+01   8.500000E+01   8.500000E+01   8.500000E+01   8.500000E+01   8.500000E+01   8.500000E+01   8.500000E+01   8.500000E+01   8.500000E+01   8.500000E+01   8.500000E+01   8.500000E+01   8.500000E+01   8.500000E+01   8.500000E+01   8.500000E+01   8.500000E+01   8.500000E+01   8.500000E+01   8.500000E+01   8.500000E+01   8.500000E+01   8.500000E+01   8.500000E+01   8.500000E+01   8.500000E+01   8.000000E+01
   9.000000E+01   8.500000E+01   8.500000E+01   8.500000E+01   8.500000E+01   8.500000E+01   8.500000E+01   8.500000E+01   8.500000E+01   8.500000E+01   8.500000E+01   8.500000E+01   8.500000E+01   8.500000E+01   8.500000E+01   8.500000E+01   8.500000E+01   8.500000E+01   8.500000E+01   8.500000E+01   8.500000E+01   8.500000E+01   8.500000E+01   8.500000E+01   8.500000E+01   8.500000E+01   8.500000E+01   8.500000E+01   8.500000E+01   8.500000E+01   8.500000E+01   8.500000E+01   8.500000E+01   8.500000E+01   8.000000E+01
   9.000000E+01   8.200000E+01   8.200000E+01   8.200000E+01   8.200000E+01   8.200000E+01   8.200000E+01   8.200000E+01   8.200000E+01   8.200000E+01   8.200000E+01   8.200000E+01   8.200000E+01   8.200000E+01   8.200000E+01   8.200000E+01   8.200000E+01   8.200000E+01   8.200000E+01   8.200000E+01   8.200000E+01   8.200000E+01   8.200000E+01   8.200000E+01   8.200000E+01   8.200000E+01   8.200000E+01   8.200000E+01   8.200000E+01   8.200000E+01   8.200000E+01   8.200000E+01   8.200000E+01   8.200000E+01   8.000000E+01
