# Name file for MODFLOW-2005, generated by Flopy version 3.9.3.
#xll:0.0; yll:0.0; rotation:0.0; units:meters; lenuni:2; start_datetime:1-1-1970
LIST               2  child_grid.list
DIS               11  child_grid.dis
BAS6              13  child_grid.bas
LPF               15  child_grid.lpf
WEL               20  child_grid.wel
PCG               27  child_grid.pcg
OC                14  child_grid.oc
DATA(BINARY)      51  child_grid.hds REPLACE
