# LPF package for MODFLOW-2005 generated by Flopy 3.9.3
         0    -1E+30         0  
         0
         0
   1.000000E+00
         0
         0
INTERNAL               1  (35E15.6) -1 #hk layer 1                    
   8.000000E+00   8.000000E+00   8.000000E+00   8.000000E+00   8.000000E+00   8.000000E+00   8.000000E+00   8.000000E+00   8.000000E+00   8.000000E+00   8.000000E+00   8.000000E+00   8.000000E+00   8.000000E+00   8.000000E+00   8.000000E+00   8.000000E+00   8.000000E+00   8.000000E+00   8.000000E+00   8.000000E+00   8.000000E+00   8.000000E+00   8.000000E+00   8.000000E+00   8.000000E+00   8.000000E+00   8.000000E+00   8.000000E+00   8.000000E+00   8.000000E+00   8.000000E+00   8.000000E+00   8.000000E+00   8.000000E+00
   8.000000E+00   8.000000E+00   8.000000E+00   8.000000E+00   8.000000E+00   8.000000E+00   8.000000E+00   8.000000E+00   8.000000E+00   8.000000E+00   8.000000E+00   8.000000E+00   8.000000E+00   8.000000E+00   8.000000E+00   8.000000E+00   8.000000E+00   8.000000E+00   8.000000E+00   8.000000E+00   8.000000E+00   8.000000E+00   8.000000E+00   8.000000E+00   8.000000E+00   8.000000E+00   8.000000E+00   8.000000E+00   8.000000E+00   8.000000E+00   8.000000E+00   8.000000E+00   8.000000E+00   8.000000E+00   8.000000E+00
   8.000000E+00   8.000000E+00   8.000000E+00   8.000000E+00   8.000000E+00   8.000000E+00   8.000000E+00   8.000000E+00   8.000000E+00   8.000000E+00   8.000000E+00   8.000000E+00   8.000000E+00   8.000000E+00   8.000000E+00   8.000000E+00   8.000000E+00   8.000000E+00   8.000000E+00   8.000000E+00   8.000000E+00   8.000000E+00   8.000000E+00   8.000000E+00   8.000000E+00   8.000000E+00   8.000000E+00   8.000000E+00   8.000000E+00   8.000000E+00   8.000000E+00   8.000000E+00   8.000000E+00   8.000000E+00   8.000000E+00
   8.000000E+00   8.000000E+00   8.000000E+00   8.000000E+00   8.000000E+00   8.000000E+00   8.000000E+00   8.000000E+00   8.000000E+00   8.000000E+00   8.000000E+00   8.000000E+00   8.000000E+00   8.000000E+00   8.000000E+00   8.000000E+00   8.000000E+00   8.000000E+00   8.000000E+00   8.000000E+00   8.000000E+00   8.000000E+00   8.000000E+00   8.000000E+00   8.000000E+00   8.000000E+00   8.000000E+00   8.000000E+00   8.000000E+00   8.000000E+00   8.000000E+00   8.000000E+00   8.000000E+00   8.000000E+00   8.000000E+00
   8.000000E+00   8.000000E+00   8.000000E+00   8.000000E+00   8.000000E+00   8.000000E+00   8.000000E+00   8.000000E+00   8.000000E+00   8.000000E+00   8.000000E+00   8.000000E+00   1.000000E+00   1.000000E+00   1.000000E+00   1.000000E+00   1.000000E+00   1.000000E+00   1.000000E+00   1.000000E+00   1.000000E+00   1.000000E+00   8.000000E+00   8.000000E+00   8.000000E+00   8.000000E+00   8.000000E+00   8.000000E+00   8.000000E+00   8.000000E+00   8.000000E+00   8.000000E+00   8.000000E+00   8.000000E+00   8.000000E+00
   8.000000E+00   8.000000E+00   8.000000E+00   8.000000E+00   8.000000E+00   8.000000E+00   8.000000E+00   8.000000E+00   8.000000E+00   8.000000E+00   8.000000E+00   8.000000E+00   1.000000E+00   1.000000E+00   1.000000E+00   1.000000E+00   1.000000E+00   1.000000E+00   1.000000E+00   1.000000E+00   1.000000E+00   1.000000E+00   8.000000E+00   8.000000E+00   8.000000E+00   8.000000E+00   8.000000E+00   8.000000E+00   8.000000E+00   8.000000E+00   8.000000E+00   8.000000E+00   8.000000E+00   8.000000E+00   8.000000E+00
   8.000000E+00   8.000000E+00   8.000000E+00   8.000000E+00   8.000000E+00   8.000000E+00   8.000000E+00   8.000000E+00   8.000000E+00   8.000000E+00   8.000000E+00   8.000000E+00   1.000000E+00   1.000000E+00   1.000000E+00   1.000000E+00   1.000000E+00   1.000000E+00   1.000000E+00   1.000000E+00   1.000000E+00   1.000000E+00   8.000000E+00   8.000000E+00   8.000000E+00   8.000000E+00   8.000000E+00   8.000000E+00   8.000000E+00   8.000000E+00   8.000000E+00   8.000000E+00   8.000000E+00   8.000000E+00   8.000000E+00
   8.000000E+00   8.000000E+00   8.000000E+00   8.000000E+00   8.000000E+00   8.000000E+00   8.000000E+00   8.000000E+00   8.000000E+00   8.000000E+00   8.000000E+00   8.000000E+00   8.000000E+00   8.000000E+00   8.000000E+00   8.000000E+00   8.000000E+00   8.000000E+00   8.000000E+00   8.000000E+00   8.000000E+00   8.000000E+00   8.000000E+00   8.000000E+00   8.000000E+00   8.000000E+00   8.000000E+00   8.000000E+00   8.000000E+00   8.000000E+00   8.000000E+00   8.000000E+00   8.000000E+00   8.000000E+00   8.000000E+00
   8.000000E+00   8.000000E+00   8.000000E+00   8.000000E+00   8.000000E+00   8.000000E+00   8.000000E+00   8.000000E+00   8.000000E+00   8.000000E+00   8.000000E+00   8.000000E+00   8.000000E+00   8.000000E+00   8.000000E+00   8.000000E+00   8.000000E+00   8.000000E+00   8.000000E+00   8.000000E+00   8.000000E+00   8.000000E+00   8.000000E+00   8.000000E+00   8.000000E+00   8.000000E+00   8.000000E+00   8.000000E+00   8.000000E+00   8.000000E+00   8.000000E+00   8.000000E+00   8.000000E+00   8.000000E+00   8.000000E+00
   8.000000E+00   8.000000E+00   8.000000E+00   8.000000E+00   8.000000E+00   8.000000E+00   8.000000E+00   8.000000E+00   8.000000E+00   8.000000E+00   8.000000E+00   8.000000E+00   8.000000E+00   8.000000E+00   8.000000E+00   8.000000E+00   8.000000E+00   8.000000E+00   8.000000E+00   8.000000E+00   8.000000E+00   8.000000E+00   8.000000E+00   8.000000E+00   8.000000E+00   8.000000E+00   8.000000E+00   8.000000E+00   8.000000E+00   8.000000E+00   8.000000E+00   8.000000E+00   8.000000E+00   8.000000E+00   8.000000E+00
   2.500000E+01   2.500000E+01   2.500000E+01   2.500000E+01   2.500000E+01   2.500000E+01   2.500000E+01   2.500000E+01   2.500000E+01   2.500000E+01   2.500000E+01   2.500000E+01   2.500000E+01   2.500000E+01   2.500000E+01   2.500000E+01   2.500000E+01   2.500000E+01   2.500000E+01   2.500000E+01   2.500000E+01   2.500000E+01   2.500000E+01   2.500000E+01   2.500000E+01   2.500000E+01   2.500000E+01   2.500000E+01   2.500000E+01   2.500000E+01   2.500000E+01   2.500000E+01   2.500000E+01   2.500000E+01   2.500000E+01
   2.500000E+01   2.500000E+01   2.500000E+01   2.500000E+01   2.500000E+01   2.500000E+01   2.500000E+01   2.500000E+01   2.500000E+01   2.500000E+01   2.500000E+01   2.500000E+01   2.500000E+01   2.500000E+01   2.500000E+01   2.500000E+01   2.500000E+01   2.500000E+01   2.500000E+01   2.500000E+01   2.500000E+01   2.500000E+01   2.500000E+01   2.500000E+01   2.500000E+01   2.500000E+01   2.500000E+01   2.500000E+01   2.500000E+01   2.500000E+01   2.500000E+01   2.500000E+01   2.500000E+01   2.500000E+01   2.500000E+01
   2.500000E+01   2.500000E+01   2.500000E+01   2.500000E+01   2.500000E+01   2.500000E+01   2.500000E+01   2.500000E+01   2.500000E+01   2.500000E+01   2.500000E+01   2.500000E+01   2.500000E+01   2.500000E+01   2.500000E+01   2.500000E+01   2.500000E+01   2.500000E+01   2.500000E+01   2.500000E+01   2.500000E+01   2.500000E+01   2.500000E+01   2.500000E+01   2.500000E+01   2.500000E+01   2.500000E+01   2.500000E+01   2.500000E+01   2.500000E+01   2.500000E+01   2.500000E+01   2.500000E+01   2.500000E+01   2.500000E+01
   2.500000E+01   2.500000E+01   2.500000E+01   2.500000E+01   2.500000E+01   2.500000E+01   2.500000E+01   2.500000E+01   2.500000E+01   2.500000E+01   2.500000E+01   2.500000E+01   2.500000E+01   2.500000E+01   2.500000E+01   2.500000E+01   2.500000E+01   2.500000E+01   2.500000E+01   2.500000E+01   2.500000E+01   2.500000E+01   2.500000E+01   2.500000E+01   2.500000E+01   2.500000E+01   2.500000E+01   2.500000E+01   2.500000E+01   2.500000E+01   2.500000E+01   2.500000E+01   2.500000E+01   2.500000E+01   2.500000E+01
   2.500000E+01   2.500000E+01   2.500000E+01   2.500000E+01   2.500000E+01   2.500000E+01   2.500000E+01   2.500000E+01   2.500000E+01   2.500000E+01   2.500000E+01   2.500000E+01   2.500000E+01   2.500000E+01   2.500000E+01   2.500000E+01   2.500000E+01   2.500000E+01   2.500000E+01   2.500000E+01   2.500000E+01   2.500000E+01   2.500000E+01   2.500000E+01   2.500000E+01   2.500000E+01   2.500000E+01   2.500000E+01   2.500000E+01   2.500000E+01   2.500000E+01   2.500000E+01   2.500000E+01   2.500000E+01   2.500000E+01
   8.000000E+00   8.000000E+00   8.000000E+00   8.000000E+00   8.000000E+00   8.000000E+00   8.000000E+00   8.000000E+00   8.000000E+00   8.000000E+00   8.000000E+00   8.000000E+00   8.000000E+00   8.000000E+00   8.000000E+00   8.000000E+00   8.000000E+00   8.000000E+00   8.000000E+00   8.000000E+00   8.000000E+00   8.000000E+00   8.000000E+00   8.000000E+00   8.000000E+00   8.000000E+00   8.000000E+00   8.000000E+00   8.000000E+00   8.000000E+00   8.000000E+00   8.000000E+00   8.000000E+00   8.000000E+00   8.000000E+00
   8.000000E+00   8.000000E+00   8.000000E+00   8.000000E+00   8.000000E+00   8.000000E+00   8.000000E+00   8.000000E+00   8.000000E+00   8.000000E+00   8.000000E+00   8.000000E+00   8.000000E+00   8.000000E+00   8.000000E+00   8.000000E+00   8.000000E+00   8.000000E+00   8.000000E+00   8.000000E+00   8.000000E+00   8.000000E+00   8.000000E+00   8.000000E+00   8.000000E+00   8.000000E+00   8.000000E+00   8.000000E+00   8.000000E+00   8.000000E+00   8.000000E+00   8.000000E+00   8.000000E+00   8.000000E+00   8.000000E+00
   8.000000E+00   8.000000E+00   8.000000E+00   8.000000E+00   8.000000E+00   8.000000E+00   8.000000E+00   8.000000E+00   8.000000E+00   8.000000E+00   8.000000E+00   8.000000E+00   8.000000E+00   8.000000E+00   8.000000E+00   8.000000E+00   8.000000E+00   8.000000E+00   8.000000E+00   8.000000E+00   8.000000E+00   8.000000E+00   8.000000E+00   8.000000E+00   8.000000E+00   8.000000E+00   8.000000E+00   8.000000E+00   8.000000E+00   8.000000E+00   8.000000E+00   8.000000E+00   8.000000E+00   8.000000E+00   8.000000E+00
   8.000000E+00   8.000000E+00   8.000000E+00   8.000000E+00   8.000000E+00   8.000000E+00   8.000000E+00   8.000000E+00   8.000000E+00   8.000000E+00   8.000000E+00   8.000000E+00   8.000000E+00   8.000000E+00   8.000000E+00   8.000000E+00   8.000000E+00   8.000000E+00   8.000000E+00   8.000000E+00   8.000000E+00   8.000000E+00   8.000000E+00   8.000000E+00   8.000000E+00   8.000000E+00   8.000000E+00   8.000000E+00   8.000000E+00   8.000000E+00   8.000000E+00   8.000000E+00   8.000000E+00   8.000000E+00   8.000000E+00
   8.000000E+00   8.000000E+00   8.000000E+00   8.000000E+00   8.000000E+00   8.000000E+00   8.000000E+00   8.000000E+00   8.000000E+00   8.000000E+00   8.000000E+00   8.000000E+00   8.000000E+00   8.000000E+00   8.000000E+00   8.000000E+00   8.000000E+00   8.000000E+00   8.000000E+00   8.000000E+00   8.000000E+00   8.000000E+00   8.000000E+00   8.000000E+00   8.000000E+00   8.000000E+00   8.000000E+00   8.000000E+00   8.000000E+00   8.000000E+00   8.000000E+00   8.000000E+00   8.000000E+00   8.000000E+00   8.000000E+00
   8.000000E+00   8.000000E+00   8.000000E+00   8.000000E+00   8.000000E+00   8.000000E+00   8.000000E+00   8.000000E+00   8.000000E+00   8.000000E+00   8.000000E+00   8.000000E+00   8.000000E+00   8.000000E+00   8.000000E+00   8.000000E+00   8.000000E+00   8.000000E+00   8.000000E+00   8.000000E+00   8.000000E+00   8.000000E+00   8.000000E+00   8.000000E+00   8.000000E+00   8.000000E+00   8.000000E+00   8.000000E+00   8.000000E+00   8.000000E+00   8.000000E+00   8.000000E+00   8.000000E+00   8.000000E+00   8.000000E+00
   8.000000E+00   8.000000E+00   8.000000E+00   8.000000E+00   8.000000E+00   8.000000E+00   8.000000E+00   8.000000E+00   8.000000E+00   8.000000E+00   8.000000E+00   8.000000E+00   8.000000E+00   8.000000E+00   8.000000E+00   8.000000E+00   8.000000E+00   8.000000E+00   8.000000E+00   8.000000E+00   8.000000E+00   8.000000E+00   8.000000E+00   8.000000E+00   8.000000E+00   8.000000E+00   8.000000E+00   8.000000E+00   8.000000E+00   8.000000E+00   8.000000E+00   8.000000E+00   8.000000E+00   8.000000E+00   8.000000E+00
   8.000000E+00   8.000000E+00   8.000000E+00   8.000000E+00   8.000000E+00   8.000000E+00   8.000000E+00   8.000000E+00   8.000000E+00   8.000000E+00   8.000000E+00   8.000000E+00   8.000000E+00   8.000000E+00   8.000000E+00   8.000000E+00   8.000000E+00   8.000000E+00   8.000000E+00   8.000000E+00   8.000000E+00   8.000000E+00   8.000000E+00   8.000000E+00   8.000000E+00   8.000000E+00   8.000000E+00   8.000000E+00   8.000000E+00   8.000000E+00   8.000000E+00   8.000000E+00   8.000000E+00   8.000000E+00   8.000000E+00
   8.000000E+00   8.000000E+00   8.000000E+00   8.000000E+00   8.000000E+00   8.000000E+00   8.000000E+00   8.000000E+00   8.000000E+00   8.000000E+00   8.000000E+00   8.000000E+00   8.000000E+00   8.000000E+00   8.000000E+00   8.000000E+00   8.000000E+00   8.000000E+00   8.000000E+00   8.000000E+00   8.000000E+00   8.000000E+00   8.000000E+00   8.000000E+00   8.000000E+00   8.000000E+00   8.000000E+00   8.000000E+00   8.000000E+00   8.000000E+00   8.000000E+00   8.000000E+00   8.000000E+00   8.000000E+00   8.000000E+00
   8.000000E+00   8.000000E+00   8.000000E+00   8.000000E+00   8.000000E+00   8.000000E+00   8.000000E+00   8.000000E+00   8.000000E+00   8.000000E+00   8.000000E+00   8.000000E+00   8.000000E+00   8.000000E+00   8.000000E+00   8.000000E+00   8.000000E+00   8.000000E+00   8.000000E+00   8.000000E+00   8.000000E+00   8.000000E+00   8.000000E+00   8.000000E+00   8.000000E+00   8.000000E+00   8.000000E+00   8.000000E+00   8.000000E+00   8.000000E+00   8.000000E+00   8.000000E+00   8.000000E+00   8.000000E+00   8.000000E+00
CONSTANT    8.000000E-01                           #vka1                          
