# Name file for MODFLOW-2005, generated by Flopy version 3.9.3.
#xll:0.0; yll:0.0; rotation:0.0; units:meters; lenuni:2; start_datetime:1-1-1970
LIST               2  parent_grid.list
DIS               11  parent_grid.dis
BAS6              13  parent_grid.bas
LPF               15  parent_grid.lpf
PCG               27  parent_grid.pcg
OC                14  parent_grid.oc
DATA(BINARY)      51  parent_grid.hds REPLACE
