# File generated by Flopy version 3.9.3 on 08/06/2025 at 23:27:56.
BEGIN options
END options

BEGIN timing
  TDIS6  reverse_demo_dis.tdis
END timing

BEGIN models
  gwf6  reverse_demo_dis.nam  reverse_demo_dis
END models

BEGIN exchanges
END exchanges

BEGIN solutiongroup  1
  ims6  reverse_demo_dis.ims  reverse_demo_dis
END solutiongroup  1

