# File generated by Flopy version 3.9.3 on 08/06/2025 at 23:27:56.
BEGIN options
END options

BEGIN dimensions
  NPER  3
END dimensions

BEGIN perioddata
       1.00000000  2       1.00000000
       1.00000000  1       1.00000000
       1.00000000  1       1.00000000
END perioddata

