# File generated by Flopy version 3.9.3 on 08/06/2025 at 23:27:56.
BEGIN options
END options

BEGIN dimensions
  NLAY  2
  NROW  10
  NCOL  10
END dimensions

BEGIN griddata
  delr
    CONSTANT      10.00000000
  delc
    CONSTANT      10.00000000
  top
    CONSTANT       0.00000000
  botm  LAYERED
    CONSTANT      -1.00000000
    CONSTANT      -2.00000000
END griddata

