# File generated by Flopy version 3.9.3 on 08/06/2025 at 23:27:56.
BEGIN options
  SAVE_FLOWS
END options

BEGIN packages
  DIS6  reverse_demo_dis.dis  dis
  NPF6  reverse_demo_dis.npf  npf
  IC6  reverse_demo_dis.ic  ic
  CHD6  reverse_demo_dis.chd  chd_0
  OC6  reverse_demo_dis.oc  oc
END packages

