# File generated by Flopy version 3.9.3 on 08/06/2025 at 23:27:56.
BEGIN options
  SAVE_SPECIFIC_DISCHARGE
END options

BEGIN griddata
  icelltype
    CONSTANT  0
  k
    CONSTANT      10.00000000
END griddata

