# File generated by Flopy version 3.9.3 on 08/06/2025 at 23:27:56.
BEGIN options
  BUDGET  FILEOUT  reverse_demo_dis.bud
  HEAD  FILEOUT  reverse_demo_dis.hds
END options

BEGIN period  1
  SAVE  HEAD  ALL
  SAVE  BUDGET  ALL
END period  1

