# File generated by Flopy version 3.9.3 on 08/08/2025 at 09:11:11.
BEGIN options
END options

BEGIN timing
  TDIS6  original.tdis
END timing

BEGIN models
  gwf6  original_model.nam  original_model
END models

BEGIN exchanges
END exchanges

BEGIN solutiongroup  1
  ims6  original.ims  original_model
END solutiongroup  1

