# GHB package for MODFLOW-USG generated by Flopy 3.9.3
         1         0
         1         0 # stress period 1
         1             5.0          1000.0
