# SMS package for MODFLOW-USG generated by Flopy 3.9.3
simple
1e-06 1e-06 100 20 2 0 2

