# WEL package for MODFLOW-USG generated by Flopy 3.9.3
         1         0 
         1         0 # stress period 1
         3          -100.0
