# Name file for MODFLOW-USG, generated by Flopy version 3.9.3.
#xll:0.0; yll:0.0; rotation:0.0; units:meters; lenuni:2; start_datetime:None
LIST               2  usg_model.list
DISU              11  usg_model.disu
BAS6              13  usg_model.bas
LPF               15  usg_model.lpf
CHD               24  usg_model.chd
SMS               32  usg_model.sms
OC                14  usg_model.oc
DATA(BINARY)      51  usg_model.hds REPLACE
