# File generated by Flopy version 3.9.3 on 08/07/2025 at 01:57:05.
BEGIN options
  SAVE_FLOWS
END options

BEGIN packages
  DIS6  mbase_demo.dis  dis
  IC6  mbase_demo.ic  ic
  NPF6  mbase_demo.npf  npf
  CHD6  mbase_demo.chd  chd_0
  OC6  mbase_demo.oc  oc
END packages

