# File generated by Flopy version 3.9.3 on 08/07/2025 at 01:57:05.
BEGIN options
END options

BEGIN dimensions
  MAXBOUND  2
END dimensions

BEGIN period  1
  1 1 1 8.00000000E+01
  1 1 5 6.00000000E+01
END period  1

