# File generated by Flopy version 3.9.3 on 08/07/2025 at 01:57:05.
BEGIN options
  BUDGET  FILEOUT  mbase_demo.cbc
  HEAD  FILEOUT  mbase_demo.hds
END options

BEGIN period  1
  SAVE  HEAD  LAST
  SAVE  BUDGET  LAST
  PRINT  HEAD  LAST
  PRINT  BUDGET  LAST
END period  1

