# File generated by Flopy version 3.9.3 on 08/07/2025 at 01:57:05.
BEGIN options
END options

BEGIN dimensions
  NLAY  1
  NROW  5
  NCOL  5
END dimensions

BEGIN griddata
  delr
    CONSTANT     100.00000000
  delc
    CONSTANT     100.00000000
  top
    CONSTANT     100.00000000
  botm
    CONSTANT       0.00000000
END griddata

