# File generated by Flopy version 3.9.3 on 08/07/2025 at 01:57:05.
BEGIN options
  PRINT_OPTION  summary
END options

