# File generated by Flopy version 3.9.3 on 08/07/2025 at 01:57:05.
BEGIN options
END options

BEGIN timing
  TDIS6  mbase_demo.tdis
END timing

BEGIN models
  gwf6  mbase_demo.nam  mbase_demo
END models

BEGIN exchanges
END exchanges

BEGIN solutiongroup  1
  ims6  mbase_demo.ims  mbase_demo
END solutiongroup  1

