# File generated by Flopy version 3.9.3 on 08/08/2025 at 09:11:21.
BEGIN options
END options

BEGIN dimensions
  MAXBOUND  10
END dimensions

BEGIN period  1
  1 15 6 1.00000000E+00
  1 14 7 1.00000000E+00
  1 13 8 1.00000000E+00
  1 12 9 1.00000000E+00
  1 11 10 1.00000000E+00
  1 10 11 1.00000000E+00
  1 9 12 1.00000000E+00
  1 8 13 1.00000000E+00
  1 7 14 1.00000000E+00
  1 6 15 1.00000000E+00
END period  1

