# LPF package for MODFLOW-2005 generated by Flopy 3.9.3
        53    -1E+30         0  
         1
         0
   1.000000E+00
         0
         0
INTERNAL               1  (30E15.6) -1 #hk layer 1                    
   2.000000E+01   2.000000E+01   2.000000E+01   2.000000E+01   2.000000E+01   2.000000E+01   2.000000E+01   2.000000E+01   2.000000E+01   2.000000E+01   2.000000E+01   2.000000E+01   2.000000E+01   2.000000E+01   2.000000E+01   2.000000E+01   2.000000E+01   2.000000E+01   2.000000E+01   2.000000E+01   2.000000E+01   2.000000E+01   2.000000E+01   2.000000E+01   2.000000E+01   2.000000E+01   2.000000E+01   2.000000E+01   2.000000E+01   2.000000E+01
   2.000000E+01   2.000000E+01   2.000000E+01   2.000000E+01   2.000000E+01   2.000000E+01   2.000000E+01   2.000000E+01   2.000000E+01   2.000000E+01   2.000000E+01   2.000000E+01   2.000000E+01   2.000000E+01   2.000000E+01   2.000000E+01   2.000000E+01   2.000000E+01   2.000000E+01   2.000000E+01   2.000000E+01   2.000000E+01   2.000000E+01   2.000000E+01   2.000000E+01   2.000000E+01   2.000000E+01   2.000000E+01   2.000000E+01   2.000000E+01
   2.000000E+01   2.000000E+01   2.000000E+01   2.000000E+01   2.000000E+01   2.000000E+01   2.000000E+01   2.000000E+01   2.000000E+01   2.000000E+01   2.000000E+01   2.000000E+01   2.000000E+01   2.000000E+01   2.000000E+01   2.000000E+01   2.000000E+01   2.000000E+01   2.000000E+01   2.000000E+01   2.000000E+01   2.000000E+01   2.000000E+01   2.000000E+01   2.000000E+01   2.000000E+01   2.000000E+01   2.000000E+01   2.000000E+01   2.000000E+01
   2.000000E+01   2.000000E+01   2.000000E+01   2.000000E+01   2.000000E+01   2.000000E+01   2.000000E+01   2.000000E+01   2.000000E+01   2.000000E+01   2.000000E+01   2.000000E+01   2.000000E+01   2.000000E+01   2.000000E+01   2.000000E+01   2.000000E+01   2.000000E+01   2.000000E+01   2.000000E+01   2.000000E+01   2.000000E+01   2.000000E+01   2.000000E+01   2.000000E+01   2.000000E+01   2.000000E+01   2.000000E+01   2.000000E+01   2.000000E+01
   2.000000E+01   2.000000E+01   2.000000E+01   2.000000E+01   2.000000E+01   2.000000E+01   2.000000E+01   2.000000E+01   2.000000E+01   2.000000E+01   2.000000E+01   2.000000E+01   2.000000E+01   2.000000E+01   2.000000E+01   2.000000E+01   2.000000E+01   2.000000E+01   2.000000E+01   2.000000E+01   2.000000E+01   2.000000E+01   2.000000E+01   2.000000E+01   2.000000E+01   2.000000E+01   2.000000E+01   2.000000E+01   2.000000E+01   2.000000E+01
   2.000000E+01   2.000000E+01   2.000000E+01   2.000000E+01   2.000000E+01   2.000000E+01   2.000000E+01   2.000000E+01   2.000000E+01   2.000000E+01   2.000000E+01   2.000000E+01   2.000000E+01   2.000000E+01   2.000000E+01   2.000000E+01   2.000000E+01   2.000000E+01   2.000000E+01   2.000000E+01   2.000000E+01   2.000000E+01   2.000000E+01   2.000000E+01   2.000000E+01   2.000000E+01   2.000000E+01   2.000000E+01   2.000000E+01   2.000000E+01
   2.000000E+01   2.000000E+01   2.000000E+01   2.000000E+01   2.000000E+01   2.000000E+01   2.000000E+01   2.000000E+01   2.000000E+01   2.000000E+01   2.000000E+01   2.000000E+01   2.000000E+01   2.000000E+01   2.000000E+01   2.000000E+01   2.000000E+01   2.000000E+01   2.000000E+01   2.000000E+01   2.000000E+01   2.000000E+01   2.000000E+01   2.000000E+01   2.000000E+01   2.000000E+01   2.000000E+01   2.000000E+01   2.000000E+01   2.000000E+01
   2.000000E+01   2.000000E+01   2.000000E+01   2.000000E+01   2.000000E+01   2.000000E+01   2.000000E+01   2.000000E+01   2.000000E+01   2.000000E+01   2.000000E+01   2.000000E+01   2.000000E+01   2.000000E+01   2.000000E+01   2.000000E+01   2.000000E+01   2.000000E+01   2.000000E+01   2.000000E+01   2.000000E+01   2.000000E+01   2.000000E+01   2.000000E+01   2.000000E+01   2.000000E+01   2.000000E+01   2.000000E+01   2.000000E+01   2.000000E+01
   2.000000E+01   2.000000E+01   2.000000E+01   2.000000E+01   2.000000E+01   2.000000E+01   2.000000E+01   2.000000E+01   2.000000E+01   2.000000E+01   2.000000E+01   2.000000E+01   2.000000E+01   2.000000E+01   2.000000E+01   2.000000E+01   2.000000E+01   2.000000E+01   2.000000E+01   2.000000E+01   2.000000E+01   2.000000E+01   2.000000E+01   2.000000E+01   2.000000E+01   2.000000E+01   2.000000E+01   2.000000E+01   2.000000E+01   2.000000E+01
   2.000000E+01   2.000000E+01   2.000000E+01   2.000000E+01   2.000000E+01   2.000000E+01   2.000000E+01   2.000000E+01   2.000000E+01   2.000000E+01   2.000000E+01   2.000000E+01   2.000000E+01   2.000000E+01   2.000000E+01   2.000000E+01   2.000000E+01   2.000000E+01   2.000000E+01   2.000000E+01   2.000000E+01   2.000000E+01   2.000000E+01   2.000000E+01   2.000000E+01   2.000000E+01   2.000000E+01   2.000000E+01   2.000000E+01   2.000000E+01
   2.000000E+01   2.000000E+01   2.000000E+01   2.000000E+01   2.000000E+01   2.000000E+01   2.000000E+01   2.000000E+01   2.000000E+01   2.000000E+01   5.000000E+01   5.000000E+01   5.000000E+01   5.000000E+01   5.000000E+01   5.000000E+01   5.000000E+01   5.000000E+01   5.000000E+01   5.000000E+01   2.000000E+01   2.000000E+01   2.000000E+01   2.000000E+01   2.000000E+01   2.000000E+01   2.000000E+01   2.000000E+01   2.000000E+01   2.000000E+01
   2.000000E+01   2.000000E+01   2.000000E+01   2.000000E+01   2.000000E+01   2.000000E+01   2.000000E+01   2.000000E+01   2.000000E+01   2.000000E+01   5.000000E+01   5.000000E+01   5.000000E+01   5.000000E+01   5.000000E+01   5.000000E+01   5.000000E+01   5.000000E+01   5.000000E+01   5.000000E+01   2.000000E+01   2.000000E+01   2.000000E+01   2.000000E+01   2.000000E+01   2.000000E+01   2.000000E+01   2.000000E+01   2.000000E+01   2.000000E+01
   2.000000E+01   2.000000E+01   2.000000E+01   2.000000E+01   2.000000E+01   2.000000E+01   2.000000E+01   2.000000E+01   2.000000E+01   2.000000E+01   5.000000E+01   5.000000E+01   5.000000E+01   5.000000E+01   5.000000E+01   5.000000E+01   5.000000E+01   5.000000E+01   5.000000E+01   5.000000E+01   2.000000E+01   2.000000E+01   2.000000E+01   2.000000E+01   2.000000E+01   2.000000E+01   2.000000E+01   2.000000E+01   2.000000E+01   2.000000E+01
   2.000000E+01   2.000000E+01   2.000000E+01   2.000000E+01   2.000000E+01   2.000000E+01   2.000000E+01   2.000000E+01   2.000000E+01   2.000000E+01   5.000000E+01   5.000000E+01   5.000000E+01   5.000000E+01   5.000000E+01   5.000000E+01   5.000000E+01   5.000000E+01   5.000000E+01   5.000000E+01   2.000000E+01   2.000000E+01   2.000000E+01   2.000000E+01   2.000000E+01   2.000000E+01   2.000000E+01   2.000000E+01   2.000000E+01   2.000000E+01
   2.000000E+01   2.000000E+01   2.000000E+01   2.000000E+01   2.000000E+01   2.000000E+01   2.000000E+01   2.000000E+01   2.000000E+01   2.000000E+01   5.000000E+01   5.000000E+01   5.000000E+01   5.000000E+01   5.000000E+01   5.000000E+01   5.000000E+01   5.000000E+01   5.000000E+01   5.000000E+01   2.000000E+01   2.000000E+01   2.000000E+01   2.000000E+01   2.000000E+01   2.000000E+01   2.000000E+01   2.000000E+01   2.000000E+01   2.000000E+01
   2.000000E+01   2.000000E+01   2.000000E+01   2.000000E+01   2.000000E+01   2.000000E+01   2.000000E+01   2.000000E+01   2.000000E+01   2.000000E+01   5.000000E+01   5.000000E+01   5.000000E+01   5.000000E+01   5.000000E+01   5.000000E+01   5.000000E+01   5.000000E+01   5.000000E+01   5.000000E+01   2.000000E+01   2.000000E+01   2.000000E+01   2.000000E+01   2.000000E+01   2.000000E+01   2.000000E+01   2.000000E+01   2.000000E+01   2.000000E+01
   2.000000E+01   2.000000E+01   2.000000E+01   2.000000E+01   2.000000E+01   2.000000E+01   2.000000E+01   2.000000E+01   2.000000E+01   2.000000E+01   5.000000E+01   5.000000E+01   5.000000E+01   5.000000E+01   5.000000E+01   5.000000E+01   5.000000E+01   5.000000E+01   5.000000E+01   5.000000E+01   2.000000E+01   2.000000E+01   2.000000E+01   2.000000E+01   2.000000E+01   2.000000E+01   2.000000E+01   2.000000E+01   2.000000E+01   2.000000E+01
   2.000000E+01   2.000000E+01   2.000000E+01   2.000000E+01   2.000000E+01   2.000000E+01   2.000000E+01   2.000000E+01   2.000000E+01   2.000000E+01   5.000000E+01   5.000000E+01   5.000000E+01   5.000000E+01   5.000000E+01   5.000000E+01   5.000000E+01   5.000000E+01   5.000000E+01   5.000000E+01   2.000000E+01   2.000000E+01   2.000000E+01   2.000000E+01   2.000000E+01   2.000000E+01   2.000000E+01   2.000000E+01   2.000000E+01   2.000000E+01
   2.000000E+01   2.000000E+01   2.000000E+01   2.000000E+01   2.000000E+01   2.000000E+01   2.000000E+01   2.000000E+01   2.000000E+01   2.000000E+01   5.000000E+01   5.000000E+01   5.000000E+01   5.000000E+01   5.000000E+01   5.000000E+01   5.000000E+01   5.000000E+01   5.000000E+01   5.000000E+01   2.000000E+01   2.000000E+01   2.000000E+01   2.000000E+01   2.000000E+01   2.000000E+01   2.000000E+01   2.000000E+01   2.000000E+01   2.000000E+01
   2.000000E+01   2.000000E+01   2.000000E+01   2.000000E+01   2.000000E+01   2.000000E+01   2.000000E+01   2.000000E+01   2.000000E+01   2.000000E+01   5.000000E+01   5.000000E+01   5.000000E+01   5.000000E+01   5.000000E+01   5.000000E+01   5.000000E+01   5.000000E+01   5.000000E+01   5.000000E+01   2.000000E+01   2.000000E+01   2.000000E+01   2.000000E+01   2.000000E+01   2.000000E+01   2.000000E+01   2.000000E+01   2.000000E+01   2.000000E+01
   2.000000E+01   2.000000E+01   2.000000E+01   2.000000E+01   2.000000E+01   2.000000E+01   2.000000E+01   2.000000E+01   2.000000E+01   2.000000E+01   2.000000E+01   2.000000E+01   2.000000E+01   2.000000E+01   2.000000E+01   2.000000E+01   2.000000E+01   2.000000E+01   2.000000E+01   2.000000E+01   2.000000E+01   2.000000E+01   2.000000E+01   2.000000E+01   2.000000E+01   2.000000E+01   2.000000E+01   2.000000E+01   2.000000E+01   2.000000E+01
   2.000000E+01   2.000000E+01   2.000000E+01   2.000000E+01   2.000000E+01   2.000000E+01   2.000000E+01   2.000000E+01   2.000000E+01   2.000000E+01   2.000000E+01   2.000000E+01   2.000000E+01   2.000000E+01   2.000000E+01   2.000000E+01   2.000000E+01   2.000000E+01   2.000000E+01   2.000000E+01   2.000000E+01   2.000000E+01   2.000000E+01   2.000000E+01   2.000000E+01   2.000000E+01   2.000000E+01   2.000000E+01   2.000000E+01   2.000000E+01
   2.000000E+01   2.000000E+01   2.000000E+01   2.000000E+01   2.000000E+01   2.000000E+01   2.000000E+01   2.000000E+01   2.000000E+01   2.000000E+01   2.000000E+01   2.000000E+01   2.000000E+01   2.000000E+01   2.000000E+01   2.000000E+01   2.000000E+01   2.000000E+01   2.000000E+01   2.000000E+01   2.000000E+01   2.000000E+01   2.000000E+01   2.000000E+01   2.000000E+01   2.000000E+01   2.000000E+01   2.000000E+01   2.000000E+01   2.000000E+01
   2.000000E+01   2.000000E+01   2.000000E+01   2.000000E+01   2.000000E+01   2.000000E+01   2.000000E+01   2.000000E+01   2.000000E+01   2.000000E+01   2.000000E+01   2.000000E+01   2.000000E+01   2.000000E+01   2.000000E+01   2.000000E+01   2.000000E+01   2.000000E+01   2.000000E+01   2.000000E+01   2.000000E+01   2.000000E+01   2.000000E+01   2.000000E+01   2.000000E+01   2.000000E+01   2.000000E+01   2.000000E+01   2.000000E+01   2.000000E+01
   2.000000E+01   2.000000E+01   2.000000E+01   2.000000E+01   2.000000E+01   2.000000E+01   2.000000E+01   2.000000E+01   2.000000E+01   2.000000E+01   2.000000E+01   2.000000E+01   2.000000E+01   2.000000E+01   2.000000E+01   2.000000E+01   2.000000E+01   2.000000E+01   2.000000E+01   2.000000E+01   2.000000E+01   2.000000E+01   2.000000E+01   2.000000E+01   2.000000E+01   2.000000E+01   2.000000E+01   2.000000E+01   2.000000E+01   2.000000E+01
   2.000000E+01   2.000000E+01   2.000000E+01   2.000000E+01   2.000000E+01   2.000000E+01   2.000000E+01   2.000000E+01   2.000000E+01   2.000000E+01   2.000000E+01   2.000000E+01   2.000000E+01   2.000000E+01   2.000000E+01   2.000000E+01   2.000000E+01   2.000000E+01   2.000000E+01   2.000000E+01   2.000000E+01   2.000000E+01   2.000000E+01   2.000000E+01   2.000000E+01   2.000000E+01   2.000000E+01   2.000000E+01   2.000000E+01   2.000000E+01
   2.000000E+01   2.000000E+01   2.000000E+01   2.000000E+01   2.000000E+01   2.000000E+01   2.000000E+01   2.000000E+01   2.000000E+01   2.000000E+01   2.000000E+01   2.000000E+01   2.000000E+01   2.000000E+01   2.000000E+01   2.000000E+01   2.000000E+01   2.000000E+01   2.000000E+01   2.000000E+01   2.000000E+01   2.000000E+01   2.000000E+01   2.000000E+01   2.000000E+01   2.000000E+01   2.000000E+01   2.000000E+01   2.000000E+01   2.000000E+01
   2.000000E+01   2.000000E+01   2.000000E+01   2.000000E+01   2.000000E+01   2.000000E+01   2.000000E+01   2.000000E+01   2.000000E+01   2.000000E+01   2.000000E+01   2.000000E+01   2.000000E+01   2.000000E+01   2.000000E+01   2.000000E+01   2.000000E+01   2.000000E+01   2.000000E+01   2.000000E+01   2.000000E+01   2.000000E+01   2.000000E+01   2.000000E+01   2.000000E+01   2.000000E+01   2.000000E+01   2.000000E+01   2.000000E+01   2.000000E+01
   2.000000E+01   2.000000E+01   2.000000E+01   2.000000E+01   2.000000E+01   2.000000E+01   2.000000E+01   2.000000E+01   2.000000E+01   2.000000E+01   2.000000E+01   2.000000E+01   2.000000E+01   2.000000E+01   2.000000E+01   2.000000E+01   2.000000E+01   2.000000E+01   2.000000E+01   2.000000E+01   2.000000E+01   2.000000E+01   2.000000E+01   2.000000E+01   2.000000E+01   2.000000E+01   2.000000E+01   2.000000E+01   2.000000E+01   2.000000E+01
   2.000000E+01   2.000000E+01   2.000000E+01   2.000000E+01   2.000000E+01   2.000000E+01   2.000000E+01   2.000000E+01   2.000000E+01   2.000000E+01   2.000000E+01   2.000000E+01   2.000000E+01   2.000000E+01   2.000000E+01   2.000000E+01   2.000000E+01   2.000000E+01   2.000000E+01   2.000000E+01   2.000000E+01   2.000000E+01   2.000000E+01   2.000000E+01   2.000000E+01   2.000000E+01   2.000000E+01   2.000000E+01   2.000000E+01   2.000000E+01
CONSTANT    5.000000E+00                           #vka1                          
