# BAS6 package for MODFLOW-2005 generated by Flopy 3.9.3
FREE
INTERNAL               1    (30I10) -1 #ibound layer 1                
        -1        -1        -1        -1        -1        -1        -1        -1        -1        -1        -1        -1        -1        -1        -1        -1        -1        -1        -1        -1        -1        -1        -1        -1        -1        -1        -1        -1        -1        -1
        -1         1         1         1         1         1         1         1         1         1         1         1         1         1         1         1         1         1         1         1         1         1         1         1         1         1         1         1         1        -1
        -1         1         1         1         1         1         1         1         1         1         1         1         1         1         1         1         1         1         1         1         1         1         1         1         1         1         1         1         1        -1
        -1         1         1         1         1         1         1         1         1         1         1         1         1         1         1         1         1         1         1         1         1         1         1         1         1         1         1         1         1        -1
        -1         1         1         1         1         1         1         1         1         1         1         1         1         1         1         1         1         1         1         1         1         1         1         1         1         1         1         1         1        -1
        -1         1         1         1         1         1         1         1         1         1         1         1         1         1         1         1         1         1         1         1         1         1         1         1         1         1         1         1         1        -1
        -1         1         1         1         1         1         1         1         1         1         1         1         1         1         1         1         1         1         1         1         1         1         1         1         1         1         1         1         1        -1
        -1         1         1         1         1         1         1         1         1         1         1         1         1         1         1         1         1         1         1         1         1         1         1         1         1         1         1         1         1        -1
        -1         1         1         1         1         1         1         1         1         1         1         1         1         1         1         1         1         1         1         1         1         1         1         1         1         1         1         1         1        -1
        -1         1         1         1         1         1         1         1         1         1         1         1         1         1         1         1         1         1         1         1         1         1         1         1         1         1         1         1         1        -1
        -1         1         1         1         1         1         1         1         1         1         1         1         1         1         1         1         1         1         1         1         1         1         1         1         1         1         1         1         1        -1
        -1         1         1         1         1         1         1         1         1         1         1         1         1         1         1         1         1         1         1         1         1         1         1         1         1         1         1         1         1        -1
        -1         1         1         1         1         1         1         1         1         1         1         1         1         1         1         1         1         1         1         1         1         1         1         1         1         1         1         1         1        -1
        -1         1         1         1         1         1         1         1         1         1         1         1         1         1         1         1         1         1         1         1         1         1         1         1         1         1         1         1         1        -1
        -1         1         1         1         1         1         1         1         1         1         1         1         1         1         1         1         1         1         1         1         1         1         1         1         1         1         1         1         1        -1
        -1         1         1         1         1         1         1         1         1         1         1         1         1         1         1         1         1         1         1         1         1         1         1         1         1         1         1         1         1        -1
        -1         1         1         1         1         1         1         1         1         1         1         1         1         1         1         1         1         1         1         1         1         1         1         1         1         1         1         1         1        -1
        -1         1         1         1         1         1         1         1         1         1         1         1         1         1         1         1         1         1         1         1         1         1         1         1         1         1         1         1         1        -1
        -1         1         1         1         1         1         1         1         1         1         1         1         1         1         1         1         1         1         1         1         1         1         1         1         1         1         1         1         1        -1
        -1         1         1         1         1         1         1         1         1         1         1         1         1         1         1         1         1         1         1         1         1         1         1         1         1         1         1         1         1        -1
        -1         1         1         1         1         1         1         1         1         1         1         1         1         1         1         1         1         1         1         1         1         1         1         1         1         1         1         1         1        -1
        -1         1         1         1         1         1         1         1         1         1         1         1         1         1         1         1         1         1         1         1         1         1         1         1         1         1         1         1         1        -1
        -1         1         1         1         1         1         1         1         1         1         1         1         1         1         1         1         1         1         1         1         1         1         1         1         1         1         1         1         1        -1
        -1         1         1         1         1         1         1         1         1         1         1         1         1         1         1         1         1         1         1         1         1         1         1         1         1         1         1         1         1        -1
        -1         1         1         1         1         1         1         1         1         1         1         1         1         1         1         1         1         1         1         1         1         1         1         1         1         1         1         1         1        -1
        -1         1         1         1         1         1         1         1         1         1         1         1         1         1         1         1         1         1         1         1         1         1         1         1         1         1         1         1         1        -1
        -1         1         1         1         1         1         1         1         1         1         1         1         1         1         1         1         1         1         1         1         1         1         1         1         1         1         1         1         1        -1
        -1         1         1         1         1         1         1         1         1         1         1         1         1         1         1         1         1         1         1         1         1         1         1         1         1         1         1         1         1        -1
        -1         1         1         1         1         1         1         1         1         1         1         1         1         1         1         1         1         1         1         1         1         1         1         1         1         1         1         1         1        -1
        -1        -1        -1        -1        -1        -1        -1        -1        -1        -1        -1        -1        -1        -1        -1        -1        -1        -1        -1        -1        -1        -1        -1        -1        -1        -1        -1        -1        -1        -1
   -999.99
INTERNAL               1  (30E15.6) -1 #strt layer 1                  
   9.575736E+01   9.589634E+01   9.603011E+01   9.615813E+01   9.627979E+01   9.639445E+01   9.650143E+01   9.660000E+01   9.668941E+01   9.676890E+01   9.683772E+01   9.689516E+01   9.694059E+01   9.697345E+01   9.699334E+01   9.700000E+01   9.699334E+01   9.697345E+01   9.694059E+01   9.689516E+01   9.683772E+01   9.676890E+01   9.668941E+01   9.660000E+01   9.650143E+01   9.639445E+01   9.627979E+01   9.615813E+01   9.603011E+01   9.589634E+01
   9.589634E+01   9.604020E+01   9.617901E+01   9.631218E+01   9.643910E+01   9.655907E+01   9.667133E+01   9.677510E+01   9.686951E+01   9.695369E+01   9.702679E+01   9.708796E+01   9.713644E+01   9.717157E+01   9.719286E+01   9.720000E+01   9.719286E+01   9.717157E+01   9.713644E+01   9.708796E+01   9.702679E+01   9.695369E+01   9.686951E+01   9.677510E+01   9.667133E+01   9.655907E+01   9.643910E+01   9.631218E+01   9.617901E+01   9.604020E+01
   9.603011E+01   9.617901E+01   9.632304E+01   9.646164E+01   9.659412E+01   9.671976E+01   9.683772E+01   9.694714E+01   9.704704E+01   9.713644E+01   9.721432E+01   9.727971E+01   9.733167E+01   9.736941E+01   9.739232E+01   9.740000E+01   9.739232E+01   9.736941E+01   9.733167E+01   9.727971E+01   9.721432E+01   9.713644E+01   9.704704E+01   9.694714E+01   9.683772E+01   9.671976E+01   9.659412E+01   9.646164E+01   9.632304E+01   9.617901E+01
   9.615813E+01   9.631218E+01   9.646164E+01   9.660589E+01   9.674423E+01   9.687590E+01   9.700000E+01   9.711556E+01   9.722151E+01   9.731672E+01   9.740000E+01   9.747018E+01   9.752614E+01   9.756689E+01   9.759168E+01   9.760000E+01   9.759168E+01   9.756689E+01   9.752614E+01   9.747018E+01   9.740000E+01   9.731672E+01   9.722151E+01   9.711556E+01   9.700000E+01   9.687590E+01   9.674423E+01   9.660589E+01   9.646164E+01   9.631218E+01
   9.627979E+01   9.643910E+01   9.659412E+01   9.674423E+01   9.688873E+01   9.702679E+01   9.715746E+01   9.727971E+01   9.739232E+01   9.749401E+01   9.758339E+01   9.765906E+01   9.771965E+01   9.776393E+01   9.779092E+01   9.780000E+01   9.779092E+01   9.776393E+01   9.771965E+01   9.765906E+01   9.758339E+01   9.749401E+01   9.739232E+01   9.727971E+01   9.715746E+01   9.702679E+01   9.688873E+01   9.674423E+01   9.659412E+01   9.643910E+01
   9.639445E+01   9.655907E+01   9.671976E+01   9.687590E+01   9.702679E+01   9.717157E+01   9.730927E+01   9.743875E+01   9.755869E+01   9.766762E+01   9.776393E+01   9.784593E+01   9.791194E+01   9.796040E+01   9.799003E+01   9.800000E+01   9.799003E+01   9.796040E+01   9.791194E+01   9.784593E+01   9.776393E+01   9.766762E+01   9.755869E+01   9.743875E+01   9.730927E+01   9.717157E+01   9.702679E+01   9.687590E+01   9.671976E+01   9.655907E+01
   9.650143E+01   9.667133E+01   9.683772E+01   9.700000E+01   9.715746E+01   9.730927E+01   9.745441E+01   9.759168E+01   9.771965E+01   9.783667E+01   9.794087E+01   9.803023E+01   9.810263E+01   9.815609E+01   9.818893E+01   9.820000E+01   9.818893E+01   9.815609E+01   9.810263E+01   9.803023E+01   9.794087E+01   9.783667E+01   9.771965E+01   9.759168E+01   9.745441E+01   9.730927E+01   9.715746E+01   9.700000E+01   9.683772E+01   9.667133E+01
   9.660000E+01   9.677510E+01   9.694714E+01   9.711556E+01   9.727971E+01   9.743875E+01   9.759168E+01   9.773726E+01   9.787397E+01   9.800000E+01   9.811320E+01   9.821114E+01   9.829120E+01   9.835076E+01   9.838755E+01   9.840000E+01   9.838755E+01   9.835076E+01   9.829120E+01   9.821114E+01   9.811320E+01   9.800000E+01   9.787397E+01   9.773726E+01   9.759168E+01   9.743875E+01   9.727971E+01   9.711556E+01   9.694714E+01   9.677510E+01
   9.668941E+01   9.686951E+01   9.704704E+01   9.722151E+01   9.739232E+01   9.755869E+01   9.771965E+01   9.787397E+01   9.802010E+01   9.815609E+01   9.827953E+01   9.838755E+01   9.847684E+01   9.854398E+01   9.858578E+01   9.860000E+01   9.858578E+01   9.854398E+01   9.847684E+01   9.838755E+01   9.827953E+01   9.815609E+01   9.802010E+01   9.787397E+01   9.771965E+01   9.755869E+01   9.739232E+01   9.722151E+01   9.704704E+01   9.686951E+01
   9.676890E+01   9.695369E+01   9.713644E+01   9.731672E+01   9.749401E+01   9.766762E+01   9.783667E+01   9.800000E+01   9.815609E+01   9.830294E+01   9.843795E+01   9.855778E+01   9.865836E+01   9.873509E+01   9.878345E+01   9.880000E+01   9.878345E+01   9.873509E+01   9.865836E+01   9.855778E+01   9.843795E+01   9.830294E+01   9.815609E+01   9.800000E+01   9.783667E+01   9.766762E+01   9.749401E+01   9.731672E+01   9.713644E+01   9.695369E+01
   9.683772E+01   9.702679E+01   9.721432E+01   9.740000E+01   9.758339E+01   9.776393E+01   9.794087E+01   9.811320E+01   9.827953E+01   9.843795E+01   9.858578E+01   9.871938E+01   9.883381E+01   9.892297E+01   9.898019E+01   9.900000E+01   9.898019E+01   9.892297E+01   9.883381E+01   9.871938E+01   9.858578E+01   9.843795E+01   9.827953E+01   9.811320E+01   9.794087E+01   9.776393E+01   9.758339E+01   9.740000E+01   9.721432E+01   9.702679E+01
   9.689516E+01   9.708796E+01   9.727971E+01   9.747018E+01   9.765906E+01   9.784593E+01   9.803023E+01   9.821114E+01   9.838755E+01   9.855778E+01   9.871938E+01   9.886863E+01   9.900000E+01   9.910558E+01   9.917538E+01   9.920000E+01   9.917538E+01   9.910558E+01   9.900000E+01   9.886863E+01   9.871938E+01   9.855778E+01   9.838755E+01   9.821114E+01   9.803023E+01   9.784593E+01   9.765906E+01   9.747018E+01   9.727971E+01   9.708796E+01
   9.694059E+01   9.713644E+01   9.733167E+01   9.752614E+01   9.771965E+01   9.791194E+01   9.810263E+01   9.829120E+01   9.847684E+01   9.865836E+01   9.883381E+01   9.900000E+01   9.915147E+01   9.927889E+01   9.936755E+01   9.940000E+01   9.936755E+01   9.927889E+01   9.915147E+01   9.900000E+01   9.883381E+01   9.865836E+01   9.847684E+01   9.829120E+01   9.810263E+01   9.791194E+01   9.771965E+01   9.752614E+01   9.733167E+01   9.713644E+01
   9.697345E+01   9.717157E+01   9.736941E+01   9.756689E+01   9.776393E+01   9.796040E+01   9.815609E+01   9.835076E+01   9.854398E+01   9.873509E+01   9.892297E+01   9.910558E+01   9.927889E+01   9.943431E+01   9.955279E+01   9.960000E+01   9.955279E+01   9.943431E+01   9.927889E+01   9.910558E+01   9.892297E+01   9.873509E+01   9.854398E+01   9.835076E+01   9.815609E+01   9.796040E+01   9.776393E+01   9.756689E+01   9.736941E+01   9.717157E+01
   9.699334E+01   9.719286E+01   9.739232E+01   9.759168E+01   9.779092E+01   9.799003E+01   9.818893E+01   9.838755E+01   9.858578E+01   9.878345E+01   9.898019E+01   9.917538E+01   9.936755E+01   9.955279E+01   9.971716E+01   9.980000E+01   9.971716E+01   9.955279E+01   9.936755E+01   9.917538E+01   9.898019E+01   9.878345E+01   9.858578E+01   9.838755E+01   9.818893E+01   9.799003E+01   9.779092E+01   9.759168E+01   9.739232E+01   9.719286E+01
   9.700000E+01   9.720000E+01   9.740000E+01   9.760000E+01   9.780000E+01   9.800000E+01   9.820000E+01   9.840000E+01   9.860000E+01   9.880000E+01   9.900000E+01   9.920000E+01   9.940000E+01   9.960000E+01   9.980000E+01   1.000000E+02   9.980000E+01   9.960000E+01   9.940000E+01   9.920000E+01   9.900000E+01   9.880000E+01   9.860000E+01   9.840000E+01   9.820000E+01   9.800000E+01   9.780000E+01   9.760000E+01   9.740000E+01   9.720000E+01
   9.699334E+01   9.719286E+01   9.739232E+01   9.759168E+01   9.779092E+01   9.799003E+01   9.818893E+01   9.838755E+01   9.858578E+01   9.878345E+01   9.898019E+01   9.917538E+01   9.936755E+01   9.955279E+01   9.971716E+01   9.980000E+01   9.971716E+01   9.955279E+01   9.936755E+01   9.917538E+01   9.898019E+01   9.878345E+01   9.858578E+01   9.838755E+01   9.818893E+01   9.799003E+01   9.779092E+01   9.759168E+01   9.739232E+01   9.719286E+01
   9.697345E+01   9.717157E+01   9.736941E+01   9.756689E+01   9.776393E+01   9.796040E+01   9.815609E+01   9.835076E+01   9.854398E+01   9.873509E+01   9.892297E+01   9.910558E+01   9.927889E+01   9.943431E+01   9.955279E+01   9.960000E+01   9.955279E+01   9.943431E+01   9.927889E+01   9.910558E+01   9.892297E+01   9.873509E+01   9.854398E+01   9.835076E+01   9.815609E+01   9.796040E+01   9.776393E+01   9.756689E+01   9.736941E+01   9.717157E+01
   9.694059E+01   9.713644E+01   9.733167E+01   9.752614E+01   9.771965E+01   9.791194E+01   9.810263E+01   9.829120E+01   9.847684E+01   9.865836E+01   9.883381E+01   9.900000E+01   9.915147E+01   9.927889E+01   9.936755E+01   9.940000E+01   9.936755E+01   9.927889E+01   9.915147E+01   9.900000E+01   9.883381E+01   9.865836E+01   9.847684E+01   9.829120E+01   9.810263E+01   9.791194E+01   9.771965E+01   9.752614E+01   9.733167E+01   9.713644E+01
   9.689516E+01   9.708796E+01   9.727971E+01   9.747018E+01   9.765906E+01   9.784593E+01   9.803023E+01   9.821114E+01   9.838755E+01   9.855778E+01   9.871938E+01   9.886863E+01   9.900000E+01   9.910558E+01   9.917538E+01   9.920000E+01   9.917538E+01   9.910558E+01   9.900000E+01   9.886863E+01   9.871938E+01   9.855778E+01   9.838755E+01   9.821114E+01   9.803023E+01   9.784593E+01   9.765906E+01   9.747018E+01   9.727971E+01   9.708796E+01
   9.683772E+01   9.702679E+01   9.721432E+01   9.740000E+01   9.758339E+01   9.776393E+01   9.794087E+01   9.811320E+01   9.827953E+01   9.843795E+01   9.858578E+01   9.871938E+01   9.883381E+01   9.892297E+01   9.898019E+01   9.900000E+01   9.898019E+01   9.892297E+01   9.883381E+01   9.871938E+01   9.858578E+01   9.843795E+01   9.827953E+01   9.811320E+01   9.794087E+01   9.776393E+01   9.758339E+01   9.740000E+01   9.721432E+01   9.702679E+01
   9.676890E+01   9.695369E+01   9.713644E+01   9.731672E+01   9.749401E+01   9.766762E+01   9.783667E+01   9.800000E+01   9.815609E+01   9.830294E+01   9.843795E+01   9.855778E+01   9.865836E+01   9.873509E+01   9.878345E+01   9.880000E+01   9.878345E+01   9.873509E+01   9.865836E+01   9.855778E+01   9.843795E+01   9.830294E+01   9.815609E+01   9.800000E+01   9.783667E+01   9.766762E+01   9.749401E+01   9.731672E+01   9.713644E+01   9.695369E+01
   9.668941E+01   9.686951E+01   9.704704E+01   9.722151E+01   9.739232E+01   9.755869E+01   9.771965E+01   9.787397E+01   9.802010E+01   9.815609E+01   9.827953E+01   9.838755E+01   9.847684E+01   9.854398E+01   9.858578E+01   9.860000E+01   9.858578E+01   9.854398E+01   9.847684E+01   9.838755E+01   9.827953E+01   9.815609E+01   9.802010E+01   9.787397E+01   9.771965E+01   9.755869E+01   9.739232E+01   9.722151E+01   9.704704E+01   9.686951E+01
   9.660000E+01   9.677510E+01   9.694714E+01   9.711556E+01   9.727971E+01   9.743875E+01   9.759168E+01   9.773726E+01   9.787397E+01   9.800000E+01   9.811320E+01   9.821114E+01   9.829120E+01   9.835076E+01   9.838755E+01   9.840000E+01   9.838755E+01   9.835076E+01   9.829120E+01   9.821114E+01   9.811320E+01   9.800000E+01   9.787397E+01   9.773726E+01   9.759168E+01   9.743875E+01   9.727971E+01   9.711556E+01   9.694714E+01   9.677510E+01
   9.650143E+01   9.667133E+01   9.683772E+01   9.700000E+01   9.715746E+01   9.730927E+01   9.745441E+01   9.759168E+01   9.771965E+01   9.783667E+01   9.794087E+01   9.803023E+01   9.810263E+01   9.815609E+01   9.818893E+01   9.820000E+01   9.818893E+01   9.815609E+01   9.810263E+01   9.803023E+01   9.794087E+01   9.783667E+01   9.771965E+01   9.759168E+01   9.745441E+01   9.730927E+01   9.715746E+01   9.700000E+01   9.683772E+01   9.667133E+01
   9.639445E+01   9.655907E+01   9.671976E+01   9.687590E+01   9.702679E+01   9.717157E+01   9.730927E+01   9.743875E+01   9.755869E+01   9.766762E+01   9.776393E+01   9.784593E+01   9.791194E+01   9.796040E+01   9.799003E+01   9.800000E+01   9.799003E+01   9.796040E+01   9.791194E+01   9.784593E+01   9.776393E+01   9.766762E+01   9.755869E+01   9.743875E+01   9.730927E+01   9.717157E+01   9.702679E+01   9.687590E+01   9.671976E+01   9.655907E+01
   9.627979E+01   9.643910E+01   9.659412E+01   9.674423E+01   9.688873E+01   9.702679E+01   9.715746E+01   9.727971E+01   9.739232E+01   9.749401E+01   9.758339E+01   9.765906E+01   9.771965E+01   9.776393E+01   9.779092E+01   9.780000E+01   9.779092E+01   9.776393E+01   9.771965E+01   9.765906E+01   9.758339E+01   9.749401E+01   9.739232E+01   9.727971E+01   9.715746E+01   9.702679E+01   9.688873E+01   9.674423E+01   9.659412E+01   9.643910E+01
   9.615813E+01   9.631218E+01   9.646164E+01   9.660589E+01   9.674423E+01   9.687590E+01   9.700000E+01   9.711556E+01   9.722151E+01   9.731672E+01   9.740000E+01   9.747018E+01   9.752614E+01   9.756689E+01   9.759168E+01   9.760000E+01   9.759168E+01   9.756689E+01   9.752614E+01   9.747018E+01   9.740000E+01   9.731672E+01   9.722151E+01   9.711556E+01   9.700000E+01   9.687590E+01   9.674423E+01   9.660589E+01   9.646164E+01   9.631218E+01
   9.603011E+01   9.617901E+01   9.632304E+01   9.646164E+01   9.659412E+01   9.671976E+01   9.683772E+01   9.694714E+01   9.704704E+01   9.713644E+01   9.721432E+01   9.727971E+01   9.733167E+01   9.736941E+01   9.739232E+01   9.740000E+01   9.739232E+01   9.736941E+01   9.733167E+01   9.727971E+01   9.721432E+01   9.713644E+01   9.704704E+01   9.694714E+01   9.683772E+01   9.671976E+01   9.659412E+01   9.646164E+01   9.632304E+01   9.617901E+01
   9.589634E+01   9.604020E+01   9.617901E+01   9.631218E+01   9.643910E+01   9.655907E+01   9.667133E+01   9.677510E+01   9.686951E+01   9.695369E+01   9.702679E+01   9.708796E+01   9.713644E+01   9.717157E+01   9.719286E+01   9.720000E+01   9.719286E+01   9.717157E+01   9.713644E+01   9.708796E+01   9.702679E+01   9.695369E+01   9.686951E+01   9.677510E+01   9.667133E+01   9.655907E+01   9.643910E+01   9.631218E+01   9.617901E+01   9.604020E+01
