# DIS package for MODFLOW-2005 generated by Flopy 3.9.3
         1        30        30         1         4         2
  0
INTERNAL               1  (30E15.6) -1 #delr                          
   4.000000E+01   4.000000E+01   4.000000E+01   4.000000E+01   4.000000E+01   4.000000E+01   4.000000E+01   4.000000E+01   4.000000E+01   4.000000E+01   2.000000E+01   2.000000E+01   2.000000E+01   2.000000E+01   2.000000E+01   2.000000E+01   2.000000E+01   2.000000E+01   2.000000E+01   2.000000E+01   4.000000E+01   4.000000E+01   4.000000E+01   4.000000E+01   4.000000E+01   4.000000E+01   4.000000E+01   4.000000E+01   4.000000E+01   4.000000E+01
INTERNAL               1  (30E15.6) -1 #delc                          
   4.000000E+01   4.000000E+01   4.000000E+01   4.000000E+01   4.000000E+01   4.000000E+01   4.000000E+01   4.000000E+01   4.000000E+01   4.000000E+01   2.000000E+01   2.000000E+01   2.000000E+01   2.000000E+01   2.000000E+01   2.000000E+01   2.000000E+01   2.000000E+01   2.000000E+01   2.000000E+01   4.000000E+01   4.000000E+01   4.000000E+01   4.000000E+01   4.000000E+01   4.000000E+01   4.000000E+01   4.000000E+01   4.000000E+01   4.000000E+01
CONSTANT    1.000000E+02                           #model_top                     
CONSTANT    0.000000E+00                           #botm layer 1                  
      1.000000             1  1.000000  SS
