# Name file for MODFLOW-2005, generated by Flopy version 3.9.3.
#xll:0.0; yll:0.0; rotation:0.0; units:meters; lenuni:2; start_datetime:1-1-1970
LIST               2  refined.list
DIS               11  refined.dis
BAS6              13  refined.bas
LPF               15  refined.lpf
WEL               20  refined.wel
OC                14  refined.oc
PCG               27  refined.pcg
DATA(BINARY)      53  refined.cbc REPLACE
DATA(BINARY)      51  refined.hds REPLACE
