# DIS package for MODFLOW-2005 generated by Flopy 3.9.3
         1        15        20         3         4         2
  0
INTERNAL               1  (20E15.6) -1 #delr                          
   2.000000E+02   2.000000E+02   2.000000E+02   2.000000E+02   2.000000E+02   2.000000E+02   2.000000E+02   2.000000E+02   2.000000E+02   2.000000E+02   2.000000E+02   2.000000E+02   2.000000E+02   2.000000E+02   2.000000E+02   2.000000E+02   2.000000E+02   2.000000E+02   2.000000E+02   2.000000E+02
INTERNAL               1  (15E15.6) -1 #delc                          
   2.000000E+02   2.000000E+02   2.000000E+02   2.000000E+02   2.000000E+02   2.000000E+02   2.000000E+02   2.000000E+02   2.000000E+02   2.000000E+02   2.000000E+02   2.000000E+02   2.000000E+02   2.000000E+02   2.000000E+02
CONSTANT    5.000000E+01                           #model_top                     
CONSTANT    0.000000E+00                           #botm layer 1                  
    365.000000            12  1.000000  SS
    365.000000            12  1.000000  TR
    365.000000            12  1.000000  TR
