# Name file for MODFLOW-2005, generated by Flopy version 3.9.3.
#xll:0.0; yll:0.0; rotation:0.0; units:meters; lenuni:2; start_datetime:1-1-1970
LIST               2  str_demo.list
DIS               11  str_demo.dis
BAS6              13  str_demo.bas
LPF               15  str_demo.lpf
OC                14  str_demo.oc
PCG               27  str_demo.pcg
DATA(BINARY)      51  str_demo.hds REPLACE
