# File generated by Flopy version 3.9.3 on 08/08/2025 at 09:11:14.
BEGIN options
END options

BEGIN griddata
  strt
    INTERNAL  FACTOR  1.0
        95.00000000      95.00000000      95.00000000      95.00000000      95.00000000      95.00000000      95.00000000      95.00000000      95.00000000      95.00000000      95.00000000      95.00000000      95.00000000      95.00000000      95.00000000      95.00000000      95.00000000      95.00000000      95.00000000      95.00000000
        95.00000000      95.00000000      95.00000000      95.00000000      95.00000000      95.00000000      95.00000000      95.00000000      95.00000000      95.00000000      95.00000000      95.00000000      95.00000000      95.00000000      95.00000000      95.00000000      95.00000000      95.00000000      95.00000000      95.00000000
        95.00000000      95.00000000      95.00000000      95.00000000      95.00000000      95.00000000      95.00000000      95.00000000      95.00000000      95.00000000      95.00000000      95.00000000      95.00000000      95.00000000      95.00000000      95.00000000      95.00000000      95.00000000      95.00000000      95.00000000
        95.00000000      95.00000000      95.00000000      95.00000000      95.00000000      95.00000000      95.00000000      95.00000000      95.00000000      95.00000000      95.00000000      95.00000000      95.00000000      95.00000000      95.00000000      95.00000000      95.00000000      95.00000000      95.00000000      95.00000000
        95.00000000      95.00000000      95.00000000      95.00000000      95.00000000      95.00000000      95.00000000      95.00000000      95.00000000      95.00000000      95.00000000      95.00000000      95.00000000      95.00000000      95.00000000      95.00000000      95.00000000      95.00000000      95.00000000      95.00000000
        95.00000000      95.00000000      95.00000000      95.00000000      95.00000000      95.00000000      95.00000000      95.00000000      95.00000000      95.00000000      95.00000000      95.00000000      95.00000000      95.00000000      95.00000000      95.00000000      95.00000000      95.00000000      95.00000000      95.00000000
        95.00000000      95.00000000      95.00000000      95.00000000      95.00000000      95.00000000      95.00000000      95.00000000      95.00000000      95.00000000      95.00000000      95.00000000      95.00000000      95.00000000      95.00000000      95.00000000      95.00000000      95.00000000      95.00000000      95.00000000
        95.00000000      95.00000000      95.00000000      95.00000000      95.00000000      95.00000000      95.00000000      95.00000000      95.00000000      95.00000000      95.00000000      95.00000000      95.00000000      95.00000000      95.00000000      95.00000000      95.00000000      95.00000000      95.00000000      95.00000000
        95.00000000      95.00000000      95.00000000      95.00000000      95.00000000      95.00000000      95.00000000      95.00000000      95.00000000      95.00000000      95.00000000      95.00000000      95.00000000      95.00000000      95.00000000      95.00000000      95.00000000      95.00000000      95.00000000      95.00000000
        95.00000000      95.00000000      95.00000000      95.00000000      95.00000000      95.00000000      95.00000000      95.00000000      95.00000000      95.00000000      95.00000000      95.00000000      95.00000000      95.00000000      95.00000000      95.00000000      95.00000000      95.00000000      95.00000000      95.00000000
        95.00000000      95.00000000      95.00000000      95.00000000      95.00000000      95.00000000      95.00000000      95.00000000      95.00000000      95.00000000      95.00000000      95.00000000      95.00000000      95.00000000      95.00000000      95.00000000      95.00000000      95.00000000      95.00000000      95.00000000
        95.00000000      95.00000000      95.00000000      95.00000000      95.00000000      95.00000000      95.00000000      95.00000000      95.00000000      95.00000000      95.00000000      95.00000000      95.00000000      95.00000000      95.00000000      95.00000000      95.00000000      95.00000000      95.00000000      95.00000000
        95.00000000      95.00000000      95.00000000      95.00000000      95.00000000      95.00000000      95.00000000      95.00000000      95.00000000      95.00000000      95.00000000      95.00000000      95.00000000      95.00000000      95.00000000      95.00000000      95.00000000      95.00000000      95.00000000      95.00000000
        95.00000000      95.00000000      95.00000000      95.00000000      95.00000000      95.00000000      95.00000000      95.00000000      95.00000000      95.00000000      95.00000000      95.00000000      95.00000000      95.00000000      95.00000000      95.00000000      95.00000000      95.00000000      95.00000000      95.00000000
        95.00000000      95.00000000      95.00000000      95.00000000      95.00000000      95.00000000      95.00000000      95.00000000      95.00000000      95.00000000      95.00000000      95.00000000      95.00000000      95.00000000      95.00000000      95.00000000      95.00000000      95.00000000      95.00000000      95.00000000
        95.00000000      95.00000000      95.00000000      95.00000000      95.00000000      95.00000000      95.00000000      95.00000000      95.00000000      95.00000000      95.00000000      95.00000000      95.00000000      95.00000000      95.00000000      95.00000000      95.00000000      95.00000000      95.00000000      95.00000000
        95.00000000      95.00000000      95.00000000      95.00000000      95.00000000      95.00000000      95.00000000      95.00000000      95.00000000      95.00000000      95.00000000      95.00000000      95.00000000      95.00000000      95.00000000      95.00000000      95.00000000      95.00000000      95.00000000      95.00000000
        95.00000000      95.00000000      95.00000000      95.00000000      95.00000000      95.00000000      95.00000000      95.00000000      95.00000000      95.00000000      95.00000000      95.00000000      95.00000000      95.00000000      95.00000000      95.00000000      95.00000000      95.00000000      95.00000000      95.00000000
        95.00000000      95.00000000      95.00000000      95.00000000      95.00000000      95.00000000      95.00000000      95.00000000      95.00000000      95.00000000      95.00000000      95.00000000      95.00000000      95.00000000      95.00000000      95.00000000      95.00000000      95.00000000      95.00000000      95.00000000
        95.00000000      95.00000000      95.00000000      95.00000000      95.00000000      95.00000000      95.00000000      95.00000000      95.00000000      95.00000000      95.00000000      95.00000000      95.00000000      95.00000000      95.00000000      95.00000000      95.00000000      95.00000000      95.00000000      95.00000000
        95.00000000      95.00000000      95.00000000      95.00000000      95.00000000      95.00000000      95.00000000      95.00000000      95.00000000      95.00000000      95.00000000      95.00000000      95.00000000      95.00000000      95.00000000      95.00000000      95.00000000      95.00000000      95.00000000      95.00000000
        95.00000000      95.00000000      95.00000000      95.00000000      95.00000000      95.00000000      95.00000000      95.00000000      95.00000000      95.00000000      95.00000000      95.00000000      95.00000000      95.00000000      95.00000000      95.00000000      95.00000000      95.00000000      95.00000000      95.00000000
        95.00000000      95.00000000      95.00000000      95.00000000      95.00000000      95.00000000      95.00000000      95.00000000      95.00000000      95.00000000      95.00000000      95.00000000      95.00000000      95.00000000      95.00000000      95.00000000      95.00000000      95.00000000      95.00000000      95.00000000
        95.00000000      95.00000000      95.00000000      95.00000000      95.00000000      95.00000000      95.00000000      95.00000000      95.00000000      95.00000000      95.00000000      95.00000000      95.00000000      95.00000000      95.00000000      95.00000000      95.00000000      95.00000000      95.00000000      95.00000000
        95.00000000      95.00000000      95.00000000      95.00000000      95.00000000      95.00000000      95.00000000      95.00000000      95.00000000      95.00000000      95.00000000      95.00000000      95.00000000      95.00000000      95.00000000      95.00000000      95.00000000      95.00000000      95.00000000      95.00000000
        95.00000000      95.00000000      95.00000000      95.00000000      95.00000000      95.00000000      95.00000000      95.00000000      95.00000000      95.00000000      95.00000000      95.00000000      95.00000000      95.00000000      95.00000000      95.00000000      95.00000000      95.00000000      95.00000000      95.00000000
        95.00000000      95.00000000      95.00000000      95.00000000      95.00000000      95.00000000      95.00000000      95.00000000      95.00000000      95.00000000      95.00000000      95.00000000      95.00000000      95.00000000      95.00000000      95.00000000      95.00000000      95.00000000      95.00000000      95.00000000
        95.00000000      95.00000000      95.00000000      95.00000000      95.00000000      95.00000000      95.00000000      95.00000000      95.00000000      95.00000000      95.00000000      95.00000000      95.00000000      95.00000000      95.00000000      95.00000000      95.00000000      95.00000000      95.00000000      95.00000000
        95.00000000      95.00000000      95.00000000      95.00000000      95.00000000      95.00000000      95.00000000      95.00000000      95.00000000      95.00000000      95.00000000      95.00000000      95.00000000      95.00000000      95.00000000      95.00000000      95.00000000      95.00000000      95.00000000      95.00000000
        95.00000000      95.00000000      95.00000000      95.00000000      95.00000000      95.00000000      95.00000000      95.00000000      95.00000000      95.00000000      95.00000000      95.00000000      95.00000000      95.00000000      95.00000000      95.00000000      95.00000000      95.00000000      95.00000000      95.00000000
        95.00000000      95.00000000      95.00000000      95.00000000      95.00000000      95.00000000      95.00000000      95.00000000      95.00000000      95.00000000      95.00000000      95.00000000      95.00000000      95.00000000      95.00000000      95.00000000      95.00000000      95.00000000      95.00000000      95.00000000
        95.00000000      95.00000000      95.00000000      95.00000000      95.00000000      95.00000000      95.00000000      95.00000000      95.00000000      95.00000000      95.00000000      95.00000000      95.00000000      95.00000000      95.00000000      95.00000000      95.00000000      95.00000000      95.00000000      95.00000000
        95.00000000      95.00000000      95.00000000      95.00000000      95.00000000      95.00000000      95.00000000      95.00000000      95.00000000      95.00000000      95.00000000      95.00000000      95.00000000      95.00000000      95.00000000      95.00000000      95.00000000      95.00000000      95.00000000      95.00000000
        95.00000000      95.00000000      95.00000000      95.00000000      95.00000000      95.00000000      95.00000000      95.00000000      95.00000000      95.00000000      95.00000000      95.00000000      95.00000000      95.00000000      95.00000000      95.00000000      95.00000000      95.00000000      95.00000000      95.00000000
        95.00000000      95.00000000      95.00000000      95.00000000      95.00000000      95.00000000      95.00000000      95.00000000      95.00000000      95.00000000      95.00000000      95.00000000      95.00000000      95.00000000      95.00000000      95.00000000      95.00000000      95.00000000      95.00000000      95.00000000
        95.00000000      95.00000000      95.00000000      95.00000000      95.00000000      95.00000000      95.00000000      95.00000000      95.00000000      95.00000000      95.00000000      95.00000000      95.00000000      95.00000000      95.00000000      95.00000000      95.00000000      95.00000000      95.00000000      95.00000000
        95.00000000      95.00000000      95.00000000      95.00000000      95.00000000      95.00000000      95.00000000      95.00000000      95.00000000      95.00000000      95.00000000      95.00000000      95.00000000      95.00000000      95.00000000      95.00000000      95.00000000      95.00000000      95.00000000      95.00000000
        95.00000000      95.00000000      95.00000000      95.00000000      95.00000000      95.00000000      95.00000000      95.00000000      95.00000000      95.00000000      95.00000000      95.00000000      95.00000000      95.00000000      95.00000000      95.00000000      95.00000000      95.00000000      95.00000000      95.00000000
        95.00000000      95.00000000      95.00000000      95.00000000      95.00000000      95.00000000      95.00000000      95.00000000      95.00000000      95.00000000      95.00000000      95.00000000      95.00000000      95.00000000      95.00000000      95.00000000
END griddata

