# File generated by Flopy version 3.9.3 on 08/07/2025 at 18:11:50.
BEGIN options
  SAVE_FLOWS
END options

BEGIN packages
  DISU6  model.disu  disu
  NPF6  model.npf  npf
  IC6  model.ic  ic
  OC6  model.oc  oc
END packages

