# File generated by Flopy version 3.9.3 on 08/08/2025 at 09:11:14.
BEGIN options
END options

BEGIN griddata
  icelltype
    CONSTANT  0
  k
    INTERNAL  FACTOR  1.0
        18.95714979       1.02762018       7.73315453      10.49435467       3.45364475       1.07669722      15.04269876       1.24079657      18.07153600      15.92121379       3.10572938       4.89405657       7.04720130      18.44610033       2.13831366      12.02611625       6.00203539      12.70901785       4.84376245      10.62050009
         8.55294239       2.42656854      14.01388789      19.27589104       7.03342748      19.33744584      19.31642509       5.47945660       8.85181421       6.20853940      11.65227292      18.41115577      19.75704771      12.75106473       4.34101660      13.36250796       6.71810373      10.39271730       9.17955914       7.94129128
         6.13081311      19.74633475       6.08057301      14.38773194       5.34818106      13.25555446      16.45994102      10.79302993       9.16316126       6.25727554      12.32287871      10.38381146      12.43903267       3.24950160       5.94106751      14.96338819       9.83687482      12.03654281       5.03003522       6.22188432
         4.11633644      15.63418028       9.61814198      10.49754376      11.40023047       8.36584284       9.09880901      17.06429187      15.82117694       8.13504715      18.42765494       6.07673506       5.76477828      17.65170038       5.32871949      18.99317720       1.21186853       3.35819794      12.23706401       8.93060416
         3.30470577       7.16795698       3.62928799      15.66810067      14.92120965       8.56315716      10.30079568       7.56279200      16.23995234       2.81755731       4.50057869       1.34620800      13.36273131      17.83256952      18.81125271      19.65558219      11.43222566       1.38741446       3.18909157       5.82748640
        12.52048764      14.23936930       8.80849505       9.39599185       3.88775014       5.41372459       7.21454685      10.78521914      12.57299352       5.74070528      14.67031279      15.16461897       9.14354451       6.14738833      10.58657832      14.26977464      17.01668397      15.83411316      12.04527089      19.26205253
         2.53400330      15.88921665      18.02007246      14.79285843      14.48023900       5.31496703       1.59167832      18.51460610       7.17791642      12.44796665      10.04679686      11.78091442      18.33940384      16.39281247      19.02877492       9.82792024      15.45141067      10.39092162      12.98545707      14.23047887
        17.78412211       6.57472736       9.68886863      11.35430927      10.94493235       5.29425223      11.71534723      16.50245885      14.28547917      17.04574882      19.27998930       2.27417382       9.85618324      16.50715583      13.53637885      16.37259824       3.44528790       5.28485263      13.12898253      16.24038044
        13.86059535      18.57965326      10.52811012       6.41091169       5.06460075      10.21321247      15.54815154       8.89556295      18.33214395      15.55243351       6.44432423      17.93807866       1.41717954       4.72650656       3.01534258       6.56729819      11.56244073       4.65272521       7.31546528      10.74557680
        16.07038429       8.85767015      18.13323717       9.77664531       2.13550630      10.04486061       3.86978848      17.20940680      11.81958515       4.28997976       8.75918326      16.95752407      18.12114054      11.05982988      11.20330370       9.25339557       4.06807948      13.26103578      12.45386862       3.84682427
        17.80914129      11.00420601       6.10816922       9.16541169       1.03075683       3.74928235      19.89106704      17.53451337      19.92212914      15.94188630      14.12079068       8.65798704      16.24457911      11.74452593      13.76567124      14.87924658      17.05338899      16.05357796       2.06331505       4.91322043
         5.36473245       7.68191164      17.89405810       9.88781999       7.56514475       4.95383233       8.40649127      17.02389850      10.91559014       4.52137919       7.59613367       7.72313128       1.77766944      15.90609639      10.43947675      19.17570232      10.19899622       3.87783472      11.30046894       3.67422330
        10.82595839      19.13909856      13.22308703       9.27923727       6.62082670      14.34828602       9.79097462       6.28924824       3.07654470       1.80477781      13.72029193      16.49809314      14.81441871       4.30871229      14.77290939      13.43388551      15.72513779      18.33994806       5.71029251       3.44886847
        13.86400841      12.55206978      18.52018194      19.15274464       4.84803501      19.89663704       1.35420736       4.99842647      13.61787919       8.71135725      16.43197569       8.53965215       3.14624317       3.27849972      16.63664929       6.54508389       5.44827740      11.30992373       3.43508471      15.43615112
         8.58287541       8.60511070       8.16871583       4.72290665      15.17104648       6.84419110      17.27332195      18.80828276       7.87908117      11.90549049       7.73917498       9.91103444       6.92173345       4.94254997       2.63009551      14.18039202      11.53098417      10.96141618       4.03243660      16.85770344
        12.56022101      17.77710701      19.04281943      19.28182314       3.74049147       7.03627566      13.75995767       6.13613588      19.48000340      11.54452946       5.42988195       5.08353756       2.69754341       9.67796822      10.45454487       8.79863166      10.06808491      18.40677402      19.32209780       6.12813304
        17.29067859      15.89670659      17.16424196       3.73857510       5.44468224      12.43120531       4.88051341      12.07402764       9.88681203      15.47512971       6.51792420       3.83247486       2.03387951      17.28606251       6.64998891      15.38788686      18.75016865       5.39074786       9.80459012       1.98497595
        13.40090221       9.61194245       9.77579496       9.67624307      10.15731093      17.30400746      18.94889774       1.88534945       2.05062409      17.29076756       2.03075571       7.79451649       7.76985914       3.85026900      11.78265174       1.90515047       8.76313785       7.47781062       3.72644832       8.42459278
         8.04130246       3.61432180      15.20885594      17.10086822      12.87816723      12.58623721      18.67963359       8.31292239      13.21374568      19.20478387      13.47820536      13.97199180      10.55611407       9.70927619      14.81292431      15.87610434      16.69054122      11.98999851      10.30753785       4.93040011
         3.32466217      14.48933330       5.08221946       3.85171380       6.58297846       2.47392041      19.83748749      16.83082663       9.73238415      13.57249102       2.19613696      14.85578265      10.13268895      13.53270800      16.95156195       6.95157686       3.09292401      16.06173002       8.33062456       8.39425486
        15.29283923      16.60355965       2.19053960       2.76566352      19.30057807       2.75665823      10.43210755       2.06248018      18.81746828      16.62944299      19.03685078       5.76818181       6.09034439       1.35792700       5.15396602       5.80615783       5.72926803      10.62749721       3.49331451      17.38248965
        19.55600816       2.27521198      17.15378970      10.86676628      18.39515003      18.83861069       9.61850501       4.00675335       3.86138724       9.63375086      11.40258941       8.86423965       4.05380418      18.73849189       4.09003028      18.22637795      17.21354202       7.25168116       2.37998517       5.78090446
        17.28802259       7.11604775      15.87732312       8.20273401      10.57069759       7.85902080      19.22237375       3.74054088       1.82919936      17.51538024       4.13015380      18.37254188       8.99948131       6.07496000      18.71002998      12.80355327       4.05623054       5.80509339       8.69531164       2.65097572
         6.27822384       3.18180171       7.20893216      10.92675590      12.29882266       7.97580534       5.79983832      10.31996688      15.14442905      18.80766487      19.00393580      16.42056754      16.06720985      17.87280936       2.58874012       7.08066924       9.82112776      15.21109041      15.91625855      15.76417852
        12.10674023      19.05493013      18.35220846       7.15873178      14.57335227      16.79263459      11.38592673       8.97791484      19.30902186       5.10619089       8.78297742       2.25257565      10.25126692      11.25597864       8.91117412       9.80056475       1.36480672       8.26045761      10.55811962      10.85950359
        17.89928862      16.00644648      16.78023484       6.91210190      19.75428371      10.21858188      18.84763110      11.42842087      13.26846264      19.12189066      12.11509244       5.53655241       3.00461707       6.04704528       9.50406365      12.73333760       7.89840605      16.22243322       9.13443157       5.46135050
         7.73477391      13.72178232       1.95736530      17.05103658       3.66427941      10.48151230      10.54667941       6.22169267       2.21877470       3.70463526       4.50183278       1.11944346      19.45077393      12.83880628       5.79000354       1.05084691      19.42358604      19.37785066       1.93901171      13.67901914
         4.51066476      13.53412750      18.62703122       8.95909179       4.63943223       8.97683012      18.30934563       2.80537631       2.50513650       4.01457239      17.99443159      15.83126168      19.57616097      19.52488127       8.98751407       7.59505142      12.01229206       1.69089416       5.72585898      16.35919104
        19.96665986       7.71015952       3.38652758       8.74070031       1.01603903       4.93338259      12.77762146      14.78230256      18.80853756       6.34282520      17.31038344       5.42352337       8.19865953      18.58867614       7.64503181       2.78077638      15.91307566       4.67375439      17.28125192       2.82006438
         8.66508310      11.70433187       1.86592052       8.49020712       7.11476490      11.55209808       7.40746316      18.85891579      13.07506917      18.32717260      18.55309681      14.92797113      11.20081908      18.03836508      10.74119472       8.93435602      11.59885219      17.61257997       8.65127470       4.27483911
         7.42647000       7.07437744      16.79058345       6.15702263      10.45286321      10.28385823      17.81690366      11.59374873      16.55735704       1.65163395      12.75946206       7.27970752      14.96577880       6.71436850      17.66202769      17.06021751       8.85758804      13.59230815      14.87783168       5.79157232
         9.63959007      11.16655186       9.63796033       3.43725618      14.30128180      13.83048654      15.49091496      11.18304651       6.96106331       2.19469545       9.07615157      11.84770758      18.67047358      14.46566960      13.79711499       3.38116921       9.40808629      13.31222122      11.45010377      11.61342980
        18.59054787       7.45023421       2.32971412       7.22115596       1.32015627       9.33316903       6.28366008       6.03514230       8.81601512       1.18650474       9.35156979      18.29283561      11.76800997      12.52305929      14.78354097       6.86694102      11.19938234       9.25646952       4.22327804       1.23099814
         2.45724333      12.07091187      14.20596888       4.97457100       5.42390049      12.56292477       3.89198476       2.95078509      17.38656665      11.86438025      12.07916720       5.68980558       5.63054721      13.20252223      12.05755581      17.43149215       6.23005157       1.63482615       5.92608127      19.16584270
        17.20601526       4.55759674       5.24345229      16.55060179       5.27788271      15.54580701      18.88960553      18.27739482      19.29689922       6.95498112      14.64257524      15.61355698       2.69326935       4.05241536      15.92616857      18.59562391       6.90742016      15.47482504       4.40251843       8.72827739
        15.50675562       8.52713516       6.98859637      14.27217361       9.74335077       6.91907497       1.75868109       1.88412241      10.37092105      13.36957584      17.57305654      17.48561641       3.51846610      16.75329768       6.46137513      14.48372877      14.09962868       7.40685288       5.93442454       7.83214406
         7.14098818       4.90765582      11.11361951      16.13110410       6.56224810       9.37327560       4.50569910      10.91273933       9.44102809      16.90123754      14.14393082      12.70372462      18.54528885       8.94138461       5.59051772      17.33251930      11.73456189       3.08565388       2.35135897      12.48570480
         8.96652084       1.06183864      11.90926623      12.62387991      19.60762303      16.44491410      13.18605374       2.83739935      17.73786196       9.82989221      11.63087216       2.81496839      10.80151474       4.35942666      18.33214027       9.81249197       2.35385221      18.19342499      19.35071432       3.67370682
         2.29894443      17.32086263      14.79595142       4.12858791       8.38448300      10.08968091      16.89286307      19.13333659      12.81704423      18.91188865       4.77750423      17.19023785      11.83790258      15.63747163       8.93858227      17.96453152
END griddata

