# File generated by Flopy version 3.9.3 on 08/07/2025 at 18:11:50.
BEGIN options
END options

BEGIN griddata
  icelltype
    CONSTANT  0
  k
    INTERNAL  FACTOR  1.0
         7.71635289      14.52975319       5.42480653       2.94026086       6.37302784      11.87713700      14.40823446      13.33544472       6.40074208      13.68820131      10.56976723      19.11030652      16.76487452       6.06152551      13.48704439      16.23418535      19.76665576      13.24628312      10.24561930      11.45111388
        13.05012190      14.78596205       3.06380610       9.88337717      10.80481047      13.78983524      15.65623181       3.66880950      13.63391635      15.79116197      17.66441824      12.55263060      19.41630826      10.82153833      17.00831480      14.93566652       5.68763360      10.38780229      14.51814631      18.58512474
         9.84099820       6.82276794       6.85490979       3.71337091       9.28646779      16.54932379       4.36455648      18.40271723      10.65931849      17.75104342      12.94733254      14.70316770       6.99667934       3.52740979       6.04130662      15.31421989      15.46109183       9.86002428      12.68043787       2.90858256
        17.46987255       2.91581886       6.21633154       9.47692191       7.05009517       6.35306365      15.67228216      10.13977261       2.68973763      17.04704958       6.84511065      16.75295910      10.35048904      19.13513431      11.12106544      11.91641384      11.28857121      15.19044076      17.44905568       8.57775302
        15.73061211       5.37383904       7.10216933      15.04970022       7.80157544       2.16745270       5.29593332       4.08221187       4.19864219       8.70689649      19.26693286      15.93647934      14.92254396       9.57995531      13.88272730      11.16423577      18.78138211      19.38680166       4.09638956      15.57307287
         1.15570207       2.54911227      11.68500766       6.78362151       8.60678856       7.05309825      18.98087086      11.40176197       3.87744008       2.67784430      15.08356636       8.70811440       8.06799602       8.76797837       7.26547728      12.83023976       6.86084438      13.17079952      18.42663197       9.23848228
         7.73096137      19.37914273       5.39925149       5.22673963      15.51362282      14.23009293       5.31926059      13.82954602       5.98279171       4.67728095       9.76287760      12.68614032      17.32456013      18.10220509      10.63526918       6.01527631       3.75655950       9.28969091       8.78473139       8.92966305
         2.11604303      10.56635757       5.76799307       6.98850544       7.00956417      12.83967845      17.88232567       1.95743317       2.12290437      14.95382277       9.86361201      12.60119074       4.22470219      18.94968611      11.95439630       7.06629854       5.25691688       1.45577757       3.06540118       6.79294197
         1.42919110      13.97957858       3.30817511      12.98306286       3.67706162       9.66752746      19.98222231       9.52038557       2.34425798       3.62242660      17.73934466      13.41810306       7.96356391      15.77825952       6.45598251       1.47765895       5.54774040      17.19118467       3.09456817      10.57415767
         1.50006363       4.00332644      11.10623425      12.19507194       1.51255413      12.96723902       4.57657434      14.04123208       4.84513518      13.06194079       7.72711380       3.47048421      10.86718597      14.82590177      11.82256719       6.64230262       7.95415772       7.23139127      18.49896237       7.75202414
         8.56536206       9.81003042      13.02349998       1.43530485       4.95908570      16.87229570       2.28117539      11.76474343      19.55121689      13.51722155       1.80376789      15.13354287      11.25273526       2.68968773       8.45601513      14.78903936      18.40534491      10.67531780      10.28732067      12.65997960
        18.57561077       7.06151611       9.15348433      19.57864303      10.37943378       6.80251631       7.05069750      12.45272436       4.89074120      10.98072191      19.92688367      13.91957314      19.99157990       9.54493270       5.23086178       9.27346159      14.36449667      19.26473464      15.83560427      18.25566477
         3.35596831       5.90206358       9.24701753       8.01928324       3.08284158       1.80250059       3.95959415       3.02573843      19.87580718      17.39175508       2.59229722      14.23202071       4.15081575       8.37162909       6.82033811      18.90590702       4.36121036      14.95061820      13.97988052       8.95280747
         6.57445797       3.40747163       9.06995052      16.27246397       7.93762920       8.29476267      17.79636928       7.27778121       7.82960249      10.62480708      19.78094511       5.27752591       7.03273993       8.11037558       5.43698589      11.73841997       9.39387354       3.57096729       6.04012056       2.32680402
         1.16733007      17.89790366       4.70017414      15.01343612      17.47830273      14.27416079       8.48310813       7.70910235      18.66530231       6.60785545      13.98250411      19.41447694       5.52857376       2.18492911      19.32078524       3.26126813      11.26085105       3.36654825      14.39628320      10.65353996
        19.78718187       4.70680295      19.71432498      18.79867884       1.32621970      12.22806868      15.83247433      11.89904077      12.92149062       3.18370007       6.91184549       2.79025843       8.65885296      19.69151738       2.97952689      12.41811423       5.91834405      13.66917884      12.64063673       2.32018872
        11.06375376      19.20491627       6.78346675      17.72764229      19.17579419       9.96236832       6.30682017      16.09515102       1.65726148       4.91003961      13.26595990      17.52563209      12.66896064      17.30505378      12.86678228       8.58487475      16.93579372       6.85334557      14.95928458      14.00886619
         3.59335724      18.69699822       7.59858299       8.81853503      12.75481899       9.27371157       2.71359583      19.09192257       5.91077197       7.97403373       3.20790763       6.90941665       6.72665262      18.30603892      13.33459656       1.55902558       7.04552249       1.20728898      11.28512198      17.84858327
        11.87465458      17.51162871      19.78292947       7.16316154      11.26676112      17.66756985      19.73016354      11.71268814       7.17767147       1.00705687      11.49927581      16.97290438       3.54966978      16.51202628       3.20552739      11.22989451       7.20895161       2.03685102       4.65685294      11.22887971
         8.47844657      18.03921283       9.37588369      17.63014559      10.07875920      12.11570931      10.93214581      11.55280870      15.11819883       7.10425842      18.50653983      12.23166253       8.91633986       1.38839017       9.08745499       9.05770662      19.43126551      16.79923837      18.00418810      13.36849122
         3.60388003       8.01910440       9.43312948      17.85316612      16.14343001      15.93512817      12.61001359      14.64581878       8.97865109      16.85222040      17.41054301       2.65123281       3.22453338      14.06586602       7.75280698       8.75116491       7.07351457       8.29805993       8.20076579       5.01043099
        13.42303919       6.56469570       1.57692409      19.31756419      10.70827964      14.50979823       2.14711479       4.57093048      13.38103598       8.70398511      14.35782085      15.68939732      17.57199279      17.61690982       4.58691196      16.75176794      16.02137696       6.51099230      11.58189450       8.98441807
         9.39727554       9.88198537      16.88473644      15.07918163       9.88036959      15.86480359       9.86125283      15.20178591       6.01928586       7.31220515      10.73804980       1.70283299      18.60734198      12.26825696       4.29386125      14.18078114      14.72552802       9.14928781      12.48558892      12.94433407
         3.81320909       6.76473296       3.84730083       1.20038159      11.58282005      11.97514457      11.81332075      18.20373874       4.66705352      12.20207594       7.62026704       2.23235461      13.74388587      19.28070331      12.56973039       3.78216397      12.08428762      11.09163803       8.91722539       8.63258449
         7.87319764       4.07698548       6.15373735      16.47816410       5.29008974      14.66533930       4.09289867      11.81702857       3.41517195       8.88544693      14.57739990      18.58110686       8.81908293       6.54084010       6.59852245       3.96244803       3.76746412      13.08454337       1.24218771      18.76932817
        18.03537301      14.15653492      16.28786132       4.19883976       6.88792957       2.74832278      16.68664632       1.98073867       4.89025881       6.72249227       2.11588668       9.75454256       7.30874969       6.47932434      16.22176203       4.29953344      17.54267479       8.74911138      16.73769673      19.17920056
        11.83365040       5.25263477      14.31401574      16.70425221      10.60417382      11.83682308      10.20034130       1.96893934      13.41981417      14.61281379      17.25916787       7.18198444       4.00575390      19.73667380       8.34047704      18.39416107      17.12985451      14.55409054      11.96165137       3.00895796
         7.44763426       2.79770807       1.67507224      13.08173183      15.29116082       1.12941308       8.79182461      15.29370669       3.43054564      17.53020244      17.48670001      14.35522662      14.95258400      13.59418383      16.53406237      16.74722765      17.02014547      10.62788592      12.89775086       1.88227659
         2.60170022      18.20397061      16.82716580      14.86464083      12.13457954       8.49375136      14.29752990      10.90174004       6.12606683      12.68370164       7.66228367       2.48148743       4.76126825       8.70281905      11.92512559      12.26220872      16.01239152      15.67162296      15.13682902      16.58537639
         8.15431973       6.40239070      10.03980270      10.08114700       1.06030208      11.87733330       2.86532761      18.45471919      16.51446979       2.94399632      18.85668938      13.23498265       1.49545604       2.09310650      11.67795594      14.04505766      14.03402321      10.60169376      10.24711640      15.45730581
        16.91149318       4.56977111      12.24268029       4.01348750      19.62208258      19.88309100      12.40478819      15.46595070      18.84620427      12.30639936      11.75401362      14.52289556      18.70840883       9.70667666      11.63946819      10.38707284      15.79190901      16.67150596       6.74722609      19.49693617
         6.34014282      15.02518079       6.92205423       7.00569691      17.32357429      16.74378269       8.79879636       8.20591939      19.61886226      15.73129721       7.40375830      12.86894182       6.11122819      13.38251214       2.74520741      16.73165051      18.88527103      11.99163822       2.96998179       1.61607753
         6.46706570      10.64835218      16.04902194       9.51079968       9.25618072      19.52427700       2.33227002      17.23429214      12.14166310      15.40084273       7.92494051       4.62540168       5.49599535      19.68910619      14.36465266       4.85993230      13.06993550       1.34837512       4.75431222       6.04787882
         9.02272681      19.74948376      17.06561853       3.44143874       2.27702449      17.61275004       1.95963160       6.34649671       1.04652720      17.92765119      17.51633450      18.38477940       8.94033776       8.13145215       2.82166416      16.08108525       3.90368602       3.15582890      15.54834483      18.38343547
        11.29619842      11.96421924      19.55575959      10.60686241       1.92128456      13.95563180       4.73624834      18.60732008      15.30412067      13.06977786      17.62929780      14.21229374      11.22136793      16.64628215      11.23290817       1.31252188       7.62452446      19.04701726       1.97689750      18.53183946
        14.91878967       3.95777139      13.53105534      10.63754007       9.19783102       9.47837955       8.02274077       5.08425116      13.95032907      17.73729319       2.16985420      10.67942385      13.60814702       6.06605217      14.92721717       7.41947235       3.90057643      18.09922355      12.24392557      14.82326801
         8.12621910      11.03283977      13.32334385       1.51452917       9.44952483       1.71979412       1.72392235       2.66004958      13.52193973       7.33635573      17.91515807       8.35630403       5.39419684       4.64746035       3.05359003       9.39941544      17.92180121      12.92989253       6.71487082      13.62627477
        14.29055421      13.04700241       8.66208594      13.79808039      13.31219863       4.17346276       9.18903217      15.21393915      14.15885252       2.37831332      10.92026109       6.54715232       9.04447962       4.47136351       4.32139516       7.18644099       6.23107883       2.21015225      15.60484141      17.69612922
        14.70465593      12.11961408      19.17105848       5.37451730      10.48158260      13.30822044      16.54054398       1.47841697      17.72102265       1.70529475       4.02230221       2.15687638      10.49969729      16.52767200       3.79886597       4.15355978
END griddata

