# File generated by Flopy version 3.9.3 on 08/08/2025 at 09:11:14.
BEGIN options
  BUDGET  FILEOUT  model.bud
  HEAD  FILEOUT  model.hds
END options

BEGIN period  1
  SAVE  HEAD  ALL
  SAVE  BUDGET  ALL
END period  1

