# File generated by Flopy version 3.9.3 on 08/08/2025 at 09:11:14.
BEGIN options
  PRINT_OPTION  summary
END options

