# File generated by Flopy version 3.9.3 on 08/07/2025 at 17:46:54.
BEGIN options
  SAVE_FLOWS
END options

BEGIN packages
  DISV6  grid_disv_demo.disv  disv
  NPF6  grid_disv_demo.npf  npf
  IC6  grid_disv_demo.ic  ic
  CHD6  grid_disv_demo.chd  chd_0
  OC6  grid_disv_demo.oc  oc
END packages

