# File generated by Flopy version 3.9.3 on 08/07/2025 at 17:46:54.
BEGIN options
  BUDGET  FILEOUT  grid_disv_demo.cbb
  HEAD  FILEOUT  grid_disv_demo.hds
END options

BEGIN period  1
  SAVE  HEAD  ALL
  SAVE  BUDGET  ALL
END period  1

