# File generated by Flopy version 3.9.3 on 08/07/2025 at 17:46:54.
BEGIN options
END options

BEGIN dimensions
  MAXBOUND  2
END dimensions

BEGIN period  1
  1 1 8.00000000E+00
  2 25 2.00000000E+00
END period  1

