# File generated by Flopy version 3.9.3 on 08/07/2025 at 17:46:54.
BEGIN options
END options

BEGIN griddata
  strt
    CONSTANT       5.00000000
END griddata

