# File generated by Flopy version 3.9.3 on 08/07/2025 at 17:46:54.
BEGIN options
END options

BEGIN dimensions
  NLAY  2
  NCPL  25
  NVERT  36
END dimensions

BEGIN griddata
  top
    CONSTANT      10.00000000
  botm  LAYERED
    CONSTANT     -10.00000000
    CONSTANT     -30.00000000
END griddata

BEGIN vertices
  1       0.00000000     500.00000000
  2     100.00000000     500.00000000
  3     200.00000000     500.00000000
  4     300.00000000     500.00000000
  5     400.00000000     500.00000000
  6     500.00000000     500.00000000
  7       0.00000000     400.00000000
  8     100.00000000     400.00000000
  9     200.00000000     400.00000000
  10     300.00000000     400.00000000
  11     400.00000000     400.00000000
  12     500.00000000     400.00000000
  13       0.00000000     300.00000000
  14     100.00000000     300.00000000
  15     200.00000000     300.00000000
  16     300.00000000     300.00000000
  17     400.00000000     300.00000000
  18     500.00000000     300.00000000
  19       0.00000000     200.00000000
  20     100.00000000     200.00000000
  21     200.00000000     200.00000000
  22     300.00000000     200.00000000
  23     400.00000000     200.00000000
  24     500.00000000     200.00000000
  25       0.00000000     100.00000000
  26     100.00000000     100.00000000
  27     200.00000000     100.00000000
  28     300.00000000     100.00000000
  29     400.00000000     100.00000000
  30     500.00000000     100.00000000
  31       0.00000000       0.00000000
  32     100.00000000       0.00000000
  33     200.00000000       0.00000000
  34     300.00000000       0.00000000
  35     400.00000000       0.00000000
  36     500.00000000       0.00000000
END vertices

BEGIN cell2d
  1      50.00000000     450.00000000  4  1  2  8  7
  2     150.00000000     450.00000000  4  2  3  9  8
  3     250.00000000     450.00000000  4  3  4  10  9
  4     350.00000000     450.00000000  4  4  5  11  10
  5     450.00000000     450.00000000  4  5  6  12  11
  6      50.00000000     350.00000000  4  7  8  14  13
  7     150.00000000     350.00000000  4  8  9  15  14
  8     250.00000000     350.00000000  4  9  10  16  15
  9     350.00000000     350.00000000  4  10  11  17  16
  10     450.00000000     350.00000000  4  11  12  18  17
  11      50.00000000     250.00000000  4  13  14  20  19
  12     150.00000000     250.00000000  4  14  15  21  20
  13     250.00000000     250.00000000  4  15  16  22  21
  14     350.00000000     250.00000000  4  16  17  23  22
  15     450.00000000     250.00000000  4  17  18  24  23
  16      50.00000000     150.00000000  4  19  20  26  25
  17     150.00000000     150.00000000  4  20  21  27  26
  18     250.00000000     150.00000000  4  21  22  28  27
  19     350.00000000     150.00000000  4  22  23  29  28
  20     450.00000000     150.00000000  4  23  24  30  29
  21      50.00000000      50.00000000  4  25  26  32  31
  22     150.00000000      50.00000000  4  26  27  33  32
  23     250.00000000      50.00000000  4  27  28  34  33
  24     350.00000000      50.00000000  4  28  29  35  34
  25     450.00000000      50.00000000  4  29  30  36  35
END cell2d

