# DIS package for MODFLOW-NWT generated by Flopy 3.9.3
         1         1       100         1         4         2
  0
CONSTANT    5.000000E+01                           #delr                          
CONSTANT    1.000000E+00                           #delc                          
CONSTANT    2.500000E+01                           #model_top                     
CONSTANT    0.000000E+00                           #botm layer 1                  
      1.000000             1  1.000000  SS
