# GHB package for MODFLOW-NWT generated by Flopy 3.9.3
         2         0
         2         0 # stress period 1
         1         1         1            20.0       40.027294
         1         1       100            11.0       22.175083
