# BAS6 package for MODFLOW-NWT generated by Flopy 3.9.3
FREE
INTERNAL               1   (100I10) -1 #ibound layer 1                
         1         1         1         1         1         1         1         1         1         1         1         1         1         1         1         1         1         1         1         1         1         1         1         1         1         1         1         1         1         1         1         1         1         1         1         1         1         1         1         1         1         1         1         1         1         1         1         1         1         1         1         1         1         1         1         1         1         1         1         1         1         1         1         1         1         1         1         1         1         1         1         1         1         1         1         1         1         1         1         1         1         1         1         1         1         1         1         1         1         1         1         1         1         1         1         1         1         1         1         1
   -999.99
INTERNAL               1 (100E15.6) -1 #strt layer 1                  
   2.000000E+01   1.990909E+01   1.981818E+01   1.972727E+01   1.963636E+01   1.954545E+01   1.945455E+01   1.936364E+01   1.927273E+01   1.918182E+01   1.909091E+01   1.900000E+01   1.890909E+01   1.881818E+01   1.872727E+01   1.863636E+01   1.854545E+01   1.845455E+01   1.836364E+01   1.827273E+01   1.818182E+01   1.809091E+01   1.800000E+01   1.790909E+01   1.781818E+01   1.772727E+01   1.763636E+01   1.754545E+01   1.745455E+01   1.736364E+01   1.727273E+01   1.718182E+01   1.709091E+01   1.700000E+01   1.690909E+01   1.681818E+01   1.672727E+01   1.663636E+01   1.654545E+01   1.645455E+01   1.636364E+01   1.627273E+01   1.618182E+01   1.609091E+01   1.600000E+01   1.590909E+01   1.581818E+01   1.572727E+01   1.563636E+01   1.554545E+01   1.545455E+01   1.536364E+01   1.527273E+01   1.518182E+01   1.509091E+01   1.500000E+01   1.490909E+01   1.481818E+01   1.472727E+01   1.463636E+01   1.454545E+01   1.445455E+01   1.436364E+01   1.427273E+01   1.418182E+01   1.409091E+01   1.400000E+01   1.390909E+01   1.381818E+01   1.372727E+01   1.363636E+01   1.354545E+01   1.345455E+01   1.336364E+01   1.327273E+01   1.318182E+01   1.309091E+01   1.300000E+01   1.290909E+01   1.281818E+01   1.272727E+01   1.263636E+01   1.254545E+01   1.245455E+01   1.236364E+01   1.227273E+01   1.218182E+01   1.209091E+01   1.200000E+01   1.190909E+01   1.181818E+01   1.172727E+01   1.163636E+01   1.154545E+01   1.145455E+01   1.136364E+01   1.127273E+01   1.118182E+01   1.109091E+01   1.100000E+01
