# NWT package for MODFLOW-NWT generated by Flopy 3.9.3
 1.000e-06 1.000e+02       100 1.000e-05         1         0         0    SIMPLE
