# Name file for MODFLOW-NWT, generated by Flopy version 3.9.3.
#xll:0.0; yll:0.0; rotation:0.0; units:meters; lenuni:2; start_datetime:1-1-1970
LIST               2  watertable.list
DIS               11  watertable.dis
BAS6              13  watertable.bas
UPW               31  watertable.upw
GHB               23  watertable.ghb
RCH               19  watertable.rch
OC                14  watertable.oc
NWT               32  watertable.nwt
DATA(BINARY)      51  watertable.hds REPLACE
