# Name file for MODPATH, generated by Flopy version 3.9.3.
MPBAS  86 mp6_demo_mp6.mpbas
DIS  11 mp6_demo.dis
HEAD  88 mp6_demo.hds
BUDGET  89 mp6_demo.cbc
