# BAS6 package for MODFLOW-2005 generated by Flopy 3.9.3
FREE
INTERNAL               1    (21I10) -1 #ibound layer 1                
         0         0         0         0         0         0         0         0         0         0         0         0         0         0         0         0         0         0         0         0         0
         0         1         1         1         1         1         1         1         1         1         1         1         1         1         1         1         1         1         1         1         0
         0         1         1         1         1         1         1         1         1         1         1         1         1         1         1         1         1         1         1         1         0
         0         1         1         1         1         1         1         1         1         1         1         1         1         1         1         1         1         1         1         1         0
         0         1         1         1         1         1         1         1         1         1         1         1         1         1         1         1         1         1         1         1         0
         0         1         1         1         1         1         1         1         1         1         1         1         1         1         1         1         1         1         1         1         0
         0         1         1         1         1         1         1         1         1         1         1         1         1         1         1         1         1         1         1         1         0
         0         1         1         1         1         1         1         1         1         1         1         1         1         1         1         1         1         1         1         1         0
         0         1         1         1         1         1         1         1         1         1         1         1         1         1         1         1         1         1         1         1         0
         0         1         1         1         1         1         1         1         1         1         1         1         1         1         1         1         1         1         1         1         0
         0         1         1         1         1         1         1         1         1         1         1         1         1         1         1         1         1         1         1         1         0
         0         1         1         1         1         1         1         1         1         1         1         1         1         1         1         1         1         1         1         1         0
         0         1         1         1         1         1         1         1         1         1         1         1         1         1         1         1         1         1         1         1         0
         0         1         1         1         1         1         1         1         1         1         1         1         1         1         1         1         1         1         1         1         0
         0         1         1         1         1         1         1         1         1         1         1         1         1         1         1         1         1         1         1         1         0
         0         1         1         1         1         1         1         1         1         1         1         1         1         1         1         1         1         1         1         1         0
         0         1         1         1         1         1         1         1         1         1         1         1         1         1         1         1         1         1         1         1         0
         0         1         1         1         1         1         1         1         1         1         1         1         1         1         1         1         1         1         1         1         0
         0         1         1         1         1         1         1         1         1         1         1         1         1         1         1         1         1         1         1         1         0
         0         1         1         1         1         1         1         1         1         1         1         1         1         1         1         1         1         1         1         1         0
         0         0         0         0         0         0         0         0         0         0         0         0         0         0         0         0         0         0         0         0         0
INTERNAL               1    (21I10) -1 #ibound layer 2                
         0         0         0         0         0         0         0         0         0         0         0         0         0         0         0         0         0         0         0         0         0
         0         1         1         1         1         1         1         1         1         1         1         1         1         1         1         1         1         1         1         1         0
         0         1         1         1         1         1         1         1         1         1         1         1         1         1         1         1         1         1         1         1         0
         0         1         1         1         1         1         1         1         1         1         1         1         1         1         1         1         1         1         1         1         0
         0         1         1         1         1         1         1         1         1         1         1         1         1         1         1         1         1         1         1         1         0
         0         1         1         1         1         1         1         1         1         1         1         1         1         1         1         1         1         1         1         1         0
         0         1         1         1         1         1         1         1         1         1         1         1         1         1         1         1         1         1         1         1         0
         0         1         1         1         1         1         1         1         1         1         1         1         1         1         1         1         1         1         1         1         0
         0         1         1         1         1         1         1         1         1         1         1         1         1         1         1         1         1         1         1         1         0
         0         1         1         1         1         1         1         1         1         1         1         1         1         1         1         1         1         1         1         1         0
         0         1         1         1         1         1         1         1         1         1         1         1         1         1         1         1         1         1         1         1         0
         0         1         1         1         1         1         1         1         1         1         1         1         1         1         1         1         1         1         1         1         0
         0         1         1         1         1         1         1         1         1         1         1         1         1         1         1         1         1         1         1         1         0
         0         1         1         1         1         1         1         1         1         1         1         1         1         1         1         1         1         1         1         1         0
         0         1         1         1         1         1         1         1         1         1         1         1         1         1         1         1         1         1         1         1         0
         0         1         1         1         1         1         1         1         1         1         1         1         1         1         1         1         1         1         1         1         0
         0         1         1         1         1         1         1         1         1         1         1         1         1         1         1         1         1         1         1         1         0
         0         1         1         1         1         1         1         1         1         1         1         1         1         1         1         1         1         1         1         1         0
         0         1         1         1         1         1         1         1         1         1         1         1         1         1         1         1         1         1         1         1         0
         0         1         1         1         1         1         1         1         1         1         1         1         1         1         1         1         1         1         1         1         0
         0         0         0         0         0         0         0         0         0         0         0         0         0         0         0         0         0         0         0         0         0
INTERNAL               1    (21I10) -1 #ibound layer 3                
         0         0         0         0         0         0         0         0         0         0         0         0         0         0         0         0         0         0         0         0         0
         0         1         1         1         1         1         1         1         1         1         1         1         1         1         1         1         1         1         1         1         0
         0         1         1         1         1         1         1         1         1         1         1         1         1         1         1         1         1         1         1         1         0
         0         1         1         1         1         1         1         1         1         1         1         1         1         1         1         1         1         1         1         1         0
         0         1         1         1         1         1         1         1         1         1         1         1         1         1         1         1         1         1         1         1         0
         0         1         1         1         1         1         1         1         1         1         1         1         1         1         1         1         1         1         1         1         0
         0         1         1         1         1         1         1         1         1         1         1         1         1         1         1         1         1         1         1         1         0
         0         1         1         1         1         1         1         1         1         1         1         1         1         1         1         1         1         1         1         1         0
         0         1         1         1         1         1         1         1         1         1         1         1         1         1         1         1         1         1         1         1         0
         0         1         1         1         1         1         1         1         1         1         1         1         1         1         1         1         1         1         1         1         0
         0         1         1         1         1         1         1         1         1         1         1         1         1         1         1         1         1         1         1         1         0
         0         1         1         1         1         1         1         1         1         1         1         1         1         1         1         1         1         1         1         1         0
         0         1         1         1         1         1         1         1         1         1         1         1         1         1         1         1         1         1         1         1         0
         0         1         1         1         1         1         1         1         1         1         1         1         1         1         1         1         1         1         1         1         0
         0         1         1         1         1         1         1         1         1         1         1         1         1         1         1         1         1         1         1         1         0
         0         1         1         1         1         1         1         1         1         1         1         1         1         1         1         1         1         1         1         1         0
         0         1         1         1         1         1         1         1         1         1         1         1         1         1         1         1         1         1         1         1         0
         0         1         1         1         1         1         1         1         1         1         1         1         1         1         1         1         1         1         1         1         0
         0         1         1         1         1         1         1         1         1         1         1         1         1         1         1         1         1         1         1         1         0
         0         1         1         1         1         1         1         1         1         1         1         1         1         1         1         1         1         1         1         1         0
         0         0         0         0         0         0         0         0         0         0         0         0         0         0         0         0         0         0         0         0         0
INTERNAL               1    (21I10) -1 #ibound layer 4                
         0         0         0         0         0         0         0         0         0         0         0         0         0         0         0         0         0         0         0         0         0
         0         1         1         1         1         1         1         1         1         1         1         1         1         1         1         1         1         1         1         1         0
         0         1         1         1         1         1         1         1         1         1         1         1         1         1         1         1         1         1         1         1         0
         0         1         1         1         1         1         1         1         1         1         1         1         1         1         1         1         1         1         1         1         0
         0         1         1         1         1         1         1         1         1         1         1         1         1         1         1         1         1         1         1         1         0
         0         1         1         1         1         1         1         1         1         1         1         1         1         1         1         1         1         1         1         1         0
         0         1         1         1         1         1         1         1         1         1         1         1         1         1         1         1         1         1         1         1         0
         0         1         1         1         1         1         1         1         1         1         1         1         1         1         1         1         1         1         1         1         0
         0         1         1         1         1         1         1         1         1         1         1         1         1         1         1         1         1         1         1         1         0
         0         1         1         1         1         1         1         1         1         1         1         1         1         1         1         1         1         1         1         1         0
         0         1         1         1         1         1         1         1         1         1         1         1         1         1         1         1         1         1         1         1         0
         0         1         1         1         1         1         1         1         1         1         1         1         1         1         1         1         1         1         1         1         0
         0         1         1         1         1         1         1         1         1         1         1         1         1         1         1         1         1         1         1         1         0
         0         1         1         1         1         1         1         1         1         1         1         1         1         1         1         1         1         1         1         1         0
         0         1         1         1         1         1         1         1         1         1         1         1         1         1         1         1         1         1         1         1         0
         0         1         1         1         1         1         1         1         1         1         1         1         1         1         1         1         1         1         1         1         0
         0         1         1         1         1         1         1         1         1         1         1         1         1         1         1         1         1         1         1         1         0
         0         1         1         1         1         1         1         1         1         1         1         1         1         1         1         1         1         1         1         1         0
         0         1         1         1         1         1         1         1         1         1         1         1         1         1         1         1         1         1         1         1         0
         0         1         1         1         1         1         1         1         1         1         1         1         1         1         1         1         1         1         1         1         0
         0         0         0         0         0         0         0         0         0         0         0         0         0         0         0         0         0         0         0         0         0
INTERNAL               1    (21I10) -1 #ibound layer 5                
         0         0         0         0         0         0         0         0         0         0         0         0         0         0         0         0         0         0         0         0         0
         0         1         1         1         1         1         1         1         1         1         1         1         1         1         1         1         1         1         1         1         0
         0         1         1         1         1         1         1         1         1         1         1         1         1         1         1         1         1         1         1         1         0
         0         1         1         1         1         1         1         1         1         1         1         1         1         1         1         1         1         1         1         1         0
         0         1         1         1         1         1         1         1         1         1         1         1         1         1         1         1         1         1         1         1         0
         0         1         1         1         1         1         1         1         1         1         1         1         1         1         1         1         1         1         1         1         0
         0         1         1         1         1         1         1         1         1         1         1         1         1         1         1         1         1         1         1         1         0
         0         1         1         1         1         1         1         1         1         1         1         1         1         1         1         1         1         1         1         1         0
         0         1         1         1         1         1         1         1         1         1         1         1         1         1         1         1         1         1         1         1         0
         0         1         1         1         1         1         1         1         1         1         1         1         1         1         1         1         1         1         1         1         0
         0         1         1         1         1         1         1         1         1         1         1         1         1         1         1         1         1         1         1         1         0
         0         1         1         1         1         1         1         1         1         1         1         1         1         1         1         1         1         1         1         1         0
         0         1         1         1         1         1         1         1         1         1         1         1         1         1         1         1         1         1         1         1         0
         0         1         1         1         1         1         1         1         1         1         1         1         1         1         1         1         1         1         1         1         0
         0         1         1         1         1         1         1         1         1         1         1         1         1         1         1         1         1         1         1         1         0
         0         1         1         1         1         1         1         1         1         1         1         1         1         1         1         1         1         1         1         1         0
         0         1         1         1         1         1         1         1         1         1         1         1         1         1         1         1         1         1         1         1         0
         0         1         1         1         1         1         1         1         1         1         1         1         1         1         1         1         1         1         1         1         0
         0         1         1         1         1         1         1         1         1         1         1         1         1         1         1         1         1         1         1         1         0
         0         1         1         1         1         1         1         1         1         1         1         1         1         1         1         1         1         1         1         1         0
         0         0         0         0         0         0         0         0         0         0         0         0         0         0         0         0         0         0         0         0         0
   -999.99
INTERNAL               1  (21E15.6) -1 #strt layer 1                  
   9.000000E+01   8.952381E+01   8.904762E+01   8.857143E+01   8.809524E+01   8.761905E+01   8.714286E+01   8.666666E+01   8.619048E+01   8.571429E+01   8.523810E+01   8.476190E+01   8.428571E+01   8.380952E+01   8.333334E+01   8.285714E+01   8.238095E+01   8.190476E+01   8.142857E+01   8.095238E+01   8.047619E+01
   9.000000E+01   8.952381E+01   8.904762E+01   8.857143E+01   8.809524E+01   8.761905E+01   8.714286E+01   8.666666E+01   8.619048E+01   8.571429E+01   8.523810E+01   8.476190E+01   8.428571E+01   8.380952E+01   8.333334E+01   8.285714E+01   8.238095E+01   8.190476E+01   8.142857E+01   8.095238E+01   8.047619E+01
   9.000000E+01   8.952381E+01   8.904762E+01   8.857143E+01   8.809524E+01   8.761905E+01   8.714286E+01   8.666666E+01   8.619048E+01   8.571429E+01   8.523810E+01   8.476190E+01   8.428571E+01   8.380952E+01   8.333334E+01   8.285714E+01   8.238095E+01   8.190476E+01   8.142857E+01   8.095238E+01   8.047619E+01
   9.000000E+01   8.952381E+01   8.904762E+01   8.857143E+01   8.809524E+01   8.761905E+01   8.714286E+01   8.666666E+01   8.619048E+01   8.571429E+01   8.523810E+01   8.476190E+01   8.428571E+01   8.380952E+01   8.333334E+01   8.285714E+01   8.238095E+01   8.190476E+01   8.142857E+01   8.095238E+01   8.047619E+01
   9.000000E+01   8.952381E+01   8.904762E+01   8.857143E+01   8.809524E+01   8.761905E+01   8.714286E+01   8.666666E+01   8.619048E+01   8.571429E+01   8.523810E+01   8.476190E+01   8.428571E+01   8.380952E+01   8.333334E+01   8.285714E+01   8.238095E+01   8.190476E+01   8.142857E+01   8.095238E+01   8.047619E+01
   9.000000E+01   8.952381E+01   8.904762E+01   8.857143E+01   8.809524E+01   8.761905E+01   8.714286E+01   8.666666E+01   8.619048E+01   8.571429E+01   8.523810E+01   8.476190E+01   8.428571E+01   8.380952E+01   8.333334E+01   8.285714E+01   8.238095E+01   8.190476E+01   8.142857E+01   8.095238E+01   8.047619E+01
   9.000000E+01   8.952381E+01   8.904762E+01   8.857143E+01   8.809524E+01   8.761905E+01   8.714286E+01   8.666666E+01   8.619048E+01   8.571429E+01   8.523810E+01   8.476190E+01   8.428571E+01   8.380952E+01   8.333334E+01   8.285714E+01   8.238095E+01   8.190476E+01   8.142857E+01   8.095238E+01   8.047619E+01
   9.000000E+01   8.952381E+01   8.904762E+01   8.857143E+01   8.809524E+01   8.761905E+01   8.714286E+01   8.666666E+01   8.619048E+01   8.571429E+01   8.523810E+01   8.476190E+01   8.428571E+01   8.380952E+01   8.333334E+01   8.285714E+01   8.238095E+01   8.190476E+01   8.142857E+01   8.095238E+01   8.047619E+01
   9.000000E+01   8.952381E+01   8.904762E+01   8.857143E+01   8.809524E+01   8.761905E+01   8.714286E+01   8.666666E+01   8.619048E+01   8.571429E+01   8.523810E+01   8.476190E+01   8.428571E+01   8.380952E+01   8.333334E+01   8.285714E+01   8.238095E+01   8.190476E+01   8.142857E+01   8.095238E+01   8.047619E+01
   9.000000E+01   8.952381E+01   8.904762E+01   8.857143E+01   8.809524E+01   8.761905E+01   8.714286E+01   8.666666E+01   8.619048E+01   8.571429E+01   8.523810E+01   8.476190E+01   8.428571E+01   8.380952E+01   8.333334E+01   8.285714E+01   8.238095E+01   8.190476E+01   8.142857E+01   8.095238E+01   8.047619E+01
   9.000000E+01   8.952381E+01   8.904762E+01   8.857143E+01   8.809524E+01   8.761905E+01   8.714286E+01   8.666666E+01   8.619048E+01   8.571429E+01   8.523810E+01   8.476190E+01   8.428571E+01   8.380952E+01   8.333334E+01   8.285714E+01   8.238095E+01   8.190476E+01   8.142857E+01   8.095238E+01   8.047619E+01
   9.000000E+01   8.952381E+01   8.904762E+01   8.857143E+01   8.809524E+01   8.761905E+01   8.714286E+01   8.666666E+01   8.619048E+01   8.571429E+01   8.523810E+01   8.476190E+01   8.428571E+01   8.380952E+01   8.333334E+01   8.285714E+01   8.238095E+01   8.190476E+01   8.142857E+01   8.095238E+01   8.047619E+01
   9.000000E+01   8.952381E+01   8.904762E+01   8.857143E+01   8.809524E+01   8.761905E+01   8.714286E+01   8.666666E+01   8.619048E+01   8.571429E+01   8.523810E+01   8.476190E+01   8.428571E+01   8.380952E+01   8.333334E+01   8.285714E+01   8.238095E+01   8.190476E+01   8.142857E+01   8.095238E+01   8.047619E+01
   9.000000E+01   8.952381E+01   8.904762E+01   8.857143E+01   8.809524E+01   8.761905E+01   8.714286E+01   8.666666E+01   8.619048E+01   8.571429E+01   8.523810E+01   8.476190E+01   8.428571E+01   8.380952E+01   8.333334E+01   8.285714E+01   8.238095E+01   8.190476E+01   8.142857E+01   8.095238E+01   8.047619E+01
   9.000000E+01   8.952381E+01   8.904762E+01   8.857143E+01   8.809524E+01   8.761905E+01   8.714286E+01   8.666666E+01   8.619048E+01   8.571429E+01   8.523810E+01   8.476190E+01   8.428571E+01   8.380952E+01   8.333334E+01   8.285714E+01   8.238095E+01   8.190476E+01   8.142857E+01   8.095238E+01   8.047619E+01
   9.000000E+01   8.952381E+01   8.904762E+01   8.857143E+01   8.809524E+01   8.761905E+01   8.714286E+01   8.666666E+01   8.619048E+01   8.571429E+01   8.523810E+01   8.476190E+01   8.428571E+01   8.380952E+01   8.333334E+01   8.285714E+01   8.238095E+01   8.190476E+01   8.142857E+01   8.095238E+01   8.047619E+01
   9.000000E+01   8.952381E+01   8.904762E+01   8.857143E+01   8.809524E+01   8.761905E+01   8.714286E+01   8.666666E+01   8.619048E+01   8.571429E+01   8.523810E+01   8.476190E+01   8.428571E+01   8.380952E+01   8.333334E+01   8.285714E+01   8.238095E+01   8.190476E+01   8.142857E+01   8.095238E+01   8.047619E+01
   9.000000E+01   8.952381E+01   8.904762E+01   8.857143E+01   8.809524E+01   8.761905E+01   8.714286E+01   8.666666E+01   8.619048E+01   8.571429E+01   8.523810E+01   8.476190E+01   8.428571E+01   8.380952E+01   8.333334E+01   8.285714E+01   8.238095E+01   8.190476E+01   8.142857E+01   8.095238E+01   8.047619E+01
   9.000000E+01   8.952381E+01   8.904762E+01   8.857143E+01   8.809524E+01   8.761905E+01   8.714286E+01   8.666666E+01   8.619048E+01   8.571429E+01   8.523810E+01   8.476190E+01   8.428571E+01   8.380952E+01   8.333334E+01   8.285714E+01   8.238095E+01   8.190476E+01   8.142857E+01   8.095238E+01   8.047619E+01
   9.000000E+01   8.952381E+01   8.904762E+01   8.857143E+01   8.809524E+01   8.761905E+01   8.714286E+01   8.666666E+01   8.619048E+01   8.571429E+01   8.523810E+01   8.476190E+01   8.428571E+01   8.380952E+01   8.333334E+01   8.285714E+01   8.238095E+01   8.190476E+01   8.142857E+01   8.095238E+01   8.047619E+01
   9.000000E+01   8.952381E+01   8.904762E+01   8.857143E+01   8.809524E+01   8.761905E+01   8.714286E+01   8.666666E+01   8.619048E+01   8.571429E+01   8.523810E+01   8.476190E+01   8.428571E+01   8.380952E+01   8.333334E+01   8.285714E+01   8.238095E+01   8.190476E+01   8.142857E+01   8.095238E+01   8.047619E+01
INTERNAL               1  (21E15.6) -1 #strt layer 2                  
   9.000000E+01   8.952381E+01   8.904762E+01   8.857143E+01   8.809524E+01   8.761905E+01   8.714286E+01   8.666666E+01   8.619048E+01   8.571429E+01   8.523810E+01   8.476190E+01   8.428571E+01   8.380952E+01   8.333334E+01   8.285714E+01   8.238095E+01   8.190476E+01   8.142857E+01   8.095238E+01   8.047619E+01
   9.000000E+01   8.952381E+01   8.904762E+01   8.857143E+01   8.809524E+01   8.761905E+01   8.714286E+01   8.666666E+01   8.619048E+01   8.571429E+01   8.523810E+01   8.476190E+01   8.428571E+01   8.380952E+01   8.333334E+01   8.285714E+01   8.238095E+01   8.190476E+01   8.142857E+01   8.095238E+01   8.047619E+01