# Name file for MODFLOW-2005, generated by Flopy version 3.9.3.
#xll:0.0; yll:0.0; rotation:0.0; units:meters; lenuni:2; start_datetime:2024-01-01
LIST               2  modeltime_demo.list
DIS               11  modeltime_demo.dis
BAS6              13  modeltime_demo.bas
LPF               15  modeltime_demo.lpf
CHD               24  modeltime_demo.chd
WEL               20  modeltime_demo.wel
OC                14  modeltime_demo.oc
PCG               27  modeltime_demo.pcg
DATA(BINARY)      51  modeltime_demo.hds REPLACE
