# DIS package for MODFLOW-2005 generated by Flopy 3.9.3
         1        10        10        12         4         2
  0
CONSTANT    1.000000E+02                           #delr                          
CONSTANT    1.000000E+02                           #delc                          
CONSTANT    5.000000E+01                           #model_top                     
CONSTANT    0.000000E+00                           #botm layer 1                  
     31.000000             5  1.000000  TR
     28.000000             4  1.000000  TR
     31.000000             5  1.000000  TR
     30.000000             5  1.000000  TR
     31.000000             5  1.000000  TR
     30.000000             5  1.000000  TR
     31.000000             5  1.000000  TR
     31.000000             5  1.000000  TR
     30.000000             5  1.000000  TR
     31.000000             5  1.000000  TR
     30.000000             5  1.000000  TR
     31.000000             5  1.000000  TR
