# CHD package for MODFLOW-2005 generated by Flopy 3.9.3
        20
        20         0 # stress period 1
         1         1         1            55.0            55.0
         1         2         1            55.0            55.0
         1         3         1            55.0            55.0
         1         4         1            55.0            55.0
         1         5         1            55.0            55.0
         1         6         1            55.0            55.0
         1         7         1            55.0            55.0
         1         8         1            55.0            55.0
         1         9         1            55.0            55.0
         1        10         1            55.0            55.0
         1         1        10            44.0            44.0
         1         2        10            44.0            44.0
         1         3        10            44.0            44.0
         1         4        10            44.0            44.0
         1         5        10            44.0            44.0
         1         6        10            44.0            44.0
         1         7        10            44.0            44.0
         1         8        10            44.0            44.0
         1         9        10            44.0            44.0
         1        10        10            44.0            44.0
        20         0 # stress period 2
         1         1         1       54.330128       54.330128
         1         2         1       54.330128       54.330128
         1         3         1       54.330128       54.330128
         1         4         1       54.330128       54.330128
         1         5         1       54.330128       54.330128
         1         6         1       54.330128       54.330128
         1         7         1       54.330128       54.330128
         1         8         1       54.330128       54.330128
         1         9         1       54.330128       54.330128
         1        10         1       54.330128       54.330128
         1         1        10         43.4641         43.4641
         1         2        10         43.4641         43.4641
         1         3        10         43.4641         43.4641
         1         4        10         43.4641         43.4641
         1         5        10         43.4641         43.4641
         1         6        10         43.4641         43.4641
         1         7        10         43.4641         43.4641
         1         8        10         43.4641         43.4641
         1         9        10         43.4641         43.4641
         1        10        10         43.4641         43.4641
        20         0 # stress period 3
         1         1         1            52.5            52.5
         1         2         1            52.5            52.5
         1         3         1            52.5            52.5
         1         4         1            52.5            52.5
         1         5         1            52.5            52.5
         1         6         1            52.5            52.5
         1         7         1            52.5            52.5
         1         8         1            52.5            52.5
         1         9         1            52.5            52.5
         1        10         1            52.5            52.5
         1         1        10            42.0            42.0
         1         2        10            42.0            42.0
         1         3        10            42.0            42.0
         1         4        10            42.0            42.0
         1         5        10            42.0            42.0
         1         6        10            42.0            42.0
         1         7        10            42.0            42.0
         1         8        10            42.0            42.0
         1         9        10            42.0            42.0
         1        10        10            42.0            42.0
        20         0 # stress period 4
         1         1         1            50.0            50.0
         1         2         1            50.0            50.0
         1         3         1            50.0            50.0
         1         4         1            50.0            50.0
         1         5         1            50.0            50.0
         1         6         1            50.0            50.0
         1         7         1            50.0            50.0
         1         8         1            50.0            50.0
         1         9         1            50.0            50.0
         1        10         1            50.0            50.0
         1         1        10            40.0            40.0
         1         2        10            40.0            40.0
         1         3        10            40.0            40.0
         1         4        10            40.0            40.0
         1         5        10            40.0            40.0
         1         6        10            40.0            40.0
         1         7        10            40.0            40.0
         1         8        10            40.0            40.0
         1         9        10            40.0            40.0
         1        10        10            40.0            40.0
        20         0 # stress period 5
         1         1         1            47.5            47.5
         1         2         1            47.5            47.5
         1         3         1            47.5            47.5
         1         4         1            47.5            47.5
         1         5         1            47.5            47.5
         1         6         1            47.5            47.5
         1         7         1            47.5            47.5
         1         8         1            47.5            47.5
         1         9         1            47.5            47.5
         1        10         1            47.5            47.5
         1         1        10            38.0            38.0
         1         2        10            38.0            38.0
         1         3        10            38.0            38.0
         1         4        10            38.0            38.0
         1         5        10            38.0            38.0
         1         6        10            38.0            38.0
         1         7        10            38.0            38.0
         1         8        10            38.0            38.0
         1         9        10            38.0            38.0
         1        10        10            38.0            38.0
        20         0 # stress period 6
         1         1         1       45.669872       45.669872
         1         2         1       45.669872       45.669872
         1         3         1       45.669872       45.669872
         1         4         1       45.669872       45.669872
         1         5         1       45.669872       45.669872
         1         6         1       45.669872       45.669872
         1         7         1       45.669872       45.669872
         1         8         1       45.669872       45.669872
         1         9         1       45.669872       45.669872
         1        10         1       45.669872       45.669872
         1         1        10         36.5359         36.5359
         1         2        10         36.5359         36.5359
         1         3        10         36.5359         36.5359
         1         4        10         36.5359         36.5359
         1         5        10         36.5359         36.5359
         1         6        10         36.5359         36.5359
         1         7        10         36.5359         36.5359
         1         8        10         36.5359         36.5359
         1         9        10         36.5359         36.5359
         1        10        10         36.5359         36.5359
        20         0 # stress period 7
         1         1         1            45.0            45.0
         1         2         1            45.0            45.0
         1         3         1            45.0            45.0
         1         4         1            45.0            45.0
         1         5         1            45.0            45.0
         1         6         1            45.0            45.0
         1         7         1            45.0            45.0
         1         8         1            45.0            45.0
         1         9         1            45.0            45.0
         1        10         1            45.0            45.0
         1         1        10            36.0            36.0
         1         2        10            36.0            36.0
         1         3        10            36.0            36.0
         1         4        10            36.0            36.0
         1         5        10            36.0            36.0
         1         6        10            36.0            36.0
         1         7        10            36.0            36.0
         1         8        10            36.0            36.0
         1         9        10            36.0            36.0
         1        10        10            36.0            36.0
        20         0 # stress period 8
         1         1         1       45.669872       45.669872
         1         2         1       45.669872       45.669872
         1         3         1       45.669872       45.669872
         1         4         1       45.669872       45.669872
         1         5         1       45.669872       45.669872
         1         6         1       45.669872       45.669872
         1         7         1       45.669872       45.669872
         1         8         1       45.669872       45.669872
         1         9         1       45.669872       45.669872
         1        10         1       45.669872       45.669872
         1         1        10         36.5359         36.5359
         1         2        10         36.5359         36.5359
         1         3        10         36.5359         36.5359
         1         4        10         36.5359         36.5359
         1         5        10         36.5359         36.5359
         1         6        10         36.5359         36.5359
         1         7        10         36.5359         36.5359
         1         8        10         36.5359         36.5359
         1         9        10         36.5359         36.5359
         1        10        10         36.5359         36.5359
        20         0 # stress period 9
         1         1         1            47.5            47.5
         1         2         1            47.5            47.5
         1         3         1            47.5            47.5
         1         4         1            47.5            47.5
         1         5         1            47.5            47.5
         1         6         1            47.5            47.5
         1         7         1            47.5            47.5
         1         8         1            47.5            47.5
         1         9         1            47.5            47.5
         1        10         1            47.5            47.5
         1         1        10            38.0            38.0
         1         2        10            38.0            38.0
         1         3        10            38.0            38.0
         1         4        10            38.0            38.0
         1         5        10            38.0            38.0
         1         6        10            38.0            38.0
         1         7        10            38.0            38.0
         1         8        10            38.0            38.0
         1         9        10            38.0            38.0
         1        10        10            38.0            38.0
        20         0 # stress period 10
         1         1         1            50.0            50.0
         1         2         1            50.0            50.0
         1         3         1            50.0            50.0
         1         4         1            50.0            50.0
         1         5         1            50.0            50.0
         1         6         1            50.0            50.0
         1         7         1            50.0            50.0
         1         8         1            50.0            50.0
         1         9         1            50.0            50.0
         1        10         1            50.0            50.0
         1         1        10            40.0            40.0
         1         2        10            40.0            40.0
         1         3        10            40.0            40.0
         1         4        10            40.0            40.0
         1         5        10            40.0            40.0
         1         6        10            40.0            40.0
         1         7        10            40.0            40.0
         1         8        10            40.0            40.0
         1         9        10            40.0            40.0
         1        10        10            40.0            40.0
        20         0 # stress period 11
         1         1         1            52.5            52.5
         1         2         1            52.5            52.5
         1         3         1            52.5            52.5
         1         4         1            52.5            52.5
         1         5         1            52.5            52.5
         1         6         1            52.5            52.5
         1         7         1            52.5            52.5
         1         8         1            52.5            52.5
         1         9         1            52.5            52.5
         1        10         1            52.5            52.5
         1         1        10            42.0            42.0
         1         2        10            42.0            42.0
         1         3        10            42.0            42.0
         1         4        10            42.0            42.0
         1         5        10            42.0            42.0
         1         6        10            42.0            42.0
         1         7        10            42.0            42.0
         1         8        10            42.0            42.0
         1         9        10            42.0            42.0
         1        10        10            42.0            42.0
        20         0 # stress period 12
         1         1         1       54.330128       54.330128
         1         2         1       54.330128       54.330128
         1         3         1       54.330128       54.330128
         1         4         1       54.330128       54.330128
         1         5         1       54.330128       54.330128
         1         6         1       54.330128       54.330128
         1         7         1       54.330128       54.330128
         1         8         1       54.330128       54.330128
         1         9         1       54.330128       54.330128
         1        10         1       54.330128       54.330128
         1         1        10         43.4641         43.4641
         1         2        10         43.4641         43.4641
         1         3        10         43.4641         43.4641
         1         4        10         43.4641         43.4641
         1         5        10         43.4641         43.4641
         1         6        10         43.4641         43.4641
         1         7        10         43.4641         43.4641
         1         8        10         43.4641         43.4641
         1         9        10         43.4641         43.4641
         1        10        10         43.4641         43.4641
