# File generated by Flopy version 3.9.3 on 08/06/2025 at 19:25:04.
BEGIN options
END options

BEGIN dimensions
  MAXBOUND  2
END dimensions

BEGIN period  1
  1 1 1 1.00000000E+01
  1 21 21 5.00000000E+00
END period  1

