# File generated by Flopy version 3.9.3 on 08/06/2025 at 19:25:04.
BEGIN options
  LENGTH_UNITS  meters
END options

BEGIN dimensions
  NLAY  2
  NROW  21
  NCOL  21
END dimensions

BEGIN griddata
  delr
    CONSTANT       4.76190476
  delc
    CONSTANT       4.76190476
  top
    CONSTANT      10.00000000
  botm  LAYERED
    INTERNAL  FACTOR  1.0
          -5.00000000      -5.00000000      -5.00000000      -5.00000000      -5.00000000      -5.00000000      -5.00000000      -5.00000000      -5.00000000      -5.00000000      -5.00000000      -5.00000000      -5.00000000      -5.00000000      -5.00000000      -5.00000000      -5.00000000      -5.00000000      -5.00000000      -5.00000000      -5.00000000
          -5.00000000      -5.00000000      -5.00000000      -5.00000000      -5.00000000      -5.00000000      -5.00000000      -5.00000000      -5.00000000      -5.00000000      -5.00000000      -5.00000000      -5.00000000      -5.00000000      -5.00000000      -5.00000000      -5.00000000      -5.00000000      -5.00000000      -5.00000000      -5.00000000
          -5.00000000      -5.00000000      -5.00000000      -5.00000000      -5.00000000      -5.00000000      -5.00000000      -5.00000000      -5.00000000      -5.00000000      -5.00000000      -5.00000000      -5.00000000      -5.00000000      -5.00000000      -5.00000000      -5.00000000      -5.00000000      -5.00000000      -5.00000000      -5.00000000
          -5.00000000      -5.00000000      -5.00000000      -5.00000000      -5.00000000      -5.00000000      -5.00000000      -5.00000000      -5.00000000      -5.00000000      -5.00000000      -5.00000000      -5.00000000      -5.00000000      -5.00000000      -5.00000000      -5.00000000      -5.00000000      -5.00000000      -5.00000000      -5.00000000
          -5.00000000      -5.00000000      -5.00000000      -5.00000000      -5.00000000      -5.00000000      -5.00000000      -5.00000000      -5.00000000      -5.00000000      -5.00000000      -5.00000000      -5.00000000      -5.00000000      -5.00000000      -5.00000000      -5.00000000      -5.00000000      -5.00000000      -5.00000000      -5.00000000
          -5.00000000      -5.00000000      -5.00000000      -5.00000000      -5.00000000      -5.00000000      -5.00000000      -5.00000000      -5.00000000      -5.00000000      -5.00000000      -5.00000000      -5.00000000      -5.00000000      -5.00000000      -5.00000000      -5.00000000      -5.00000000      -5.00000000      -5.00000000      -5.00000000
          -5.00000000      -5.00000000      -5.00000000      -5.00000000      -5.00000000      -5.00000000      -5.00000000      -5.00000000      -5.00000000      -5.00000000      -5.00000000      -5.00000000      -5.00000000      -5.00000000      -5.00000000      -5.00000000      -5.00000000      -5.00000000      -5.00000000      -5.00000000      -5.00000000
          -5.00000000      -5.00000000      -5.00000000      -5.00000000      -5.00000000      -5.00000000      -5.00000000      -5.00000000      -5.00000000      -5.00000000      -5.00000000      -5.00000000      -5.00000000      -5.00000000      -5.00000000      -5.00000000      -5.00000000      -5.00000000      -5.00000000      -5.00000000      -5.00000000
          -5.00000000      -5.00000000      -5.00000000      -5.00000000      -5.00000000      -5.00000000      -5.00000000      -5.00000000      -5.00000000      -5.00000000      -5.00000000      -5.00000000      -5.00000000      -5.00000000      -5.00000000      -5.00000000      -5.00000000      -5.00000000      -5.00000000      -5.00000000      -5.00000000
          -5.00000000      -5.00000000      -5.00000000      -5.00000000      -5.00000000      -5.00000000      -5.00000000      -5.00000000      -5.00000000      -5.00000000      -5.00000000      -5.00000000      -5.00000000      -5.00000000      -5.00000000      -5.00000000      -5.00000000      -5.00000000      -5.00000000      -5.00000000      -5.00000000
          -5.00000000      -5.00000000      -5.00000000      -5.00000000      -5.00000000      -5.00000000      -5.00000000      -5.00000000      -5.00000000      -5.00000000      -5.00000000      -5.00000000      -5.00000000      -5.00000000      -5.00000000      -5.00000000      -5.00000000      -5.00000000      -5.00000000      -5.00000000      -5.00000000
          -5.00000000      -5.00000000      -5.00000000      -5.00000000      -5.00000000      -5.00000000      -5.00000000      -5.00000000      -5.00000000      -5.00000000      -5.00000000      -5.00000000      -5.00000000      -5.00000000      -5.00000000      -5.00000000      -5.00000000      -5.00000000      -5.00000000      -5.00000000      -5.00000000
          -5.00000000      -5.00000000      -5.00000000      -5.00000000      -5.00000000      -5.00000000      -5.00000000      -5.00000000      -5.00000000      -5.00000000      -5.00000000      -5.00000000      -5.00000000      -5.00000000      -5.00000000      -5.00000000      -5.00000000      -5.00000000      -5.00000000      -5.00000000      -5.00000000
          -5.00000000      -5.00000000      -5.00000000      -5.00000000      -5.00000000      -5.00000000      -5.00000000      -5.00000000      -5.00000000      -5.00000000      -5.00000000      -5.00000000      -5.00000000      -5.00000000      -5.00000000      -5.00000000      -5.00000000      -5.00000000      -5.00000000      -5.00000000      -5.00000000
          -5.00000000      -5.00000000      -5.00000000      -5.00000000      -5.00000000      -5.00000000      -5.00000000      -5.00000000      -5.00000000      -5.00000000      -5.00000000      -5.00000000      -5.00000000      -5.00000000      -5.00000000      -5.00000000      -5.00000000      -5.00000000      -5.00000000      -5.00000000      -5.00000000
          -5.00000000      -5.00000000      -5.00000000      -5.00000000      -5.00000000      -5.00000000      -5.00000000      -5.00000000      -5.00000000      -5.00000000      -5.00000000      -5.00000000      -5.00000000      -5.00000000      -5.00000000      -5.00000000      -5.00000000      -5.00000000      -5.00000000      -5.00000000      -5.00000000
          -5.00000000      -5.00000000      -5.00000000      -5.00000000      -5.00000000      -5.00000000      -5.00000000      -5.00000000      -5.00000000      -5.00000000      -5.00000000      -5.00000000      -5.00000000      -5.00000000      -5.00000000      -5.00000000      -5.00000000      -5.00000000      -5.00000000      -5.00000000      -5.00000000
          -5.00000000      -5.00000000      -5.00000000      -5.00000000      -5.00000000      -5.00000000      -5.00000000      -5.00000000      -5.00000000      -5.00000000      -5.00000000      -5.00000000      -5.00000000      -5.00000000      -5.00000000      -5.00000000      -5.00000000      -5.00000000      -5.00000000      -5.00000000      -5.00000000
          -5.00000000      -5.00000000      -5.00000000      -5.00000000      -5.00000000      -5.00000000      -5.00000000      -5.00000000      -5.00000000      -5.00000000      -5.00000000      -5.00000000      -5.00000000      -5.00000000      -5.00000000      -5.00000000      -5.00000000      -5.00000000      -5.00000000      -5.00000000      -5.00000000
          -5.00000000      -5.00000000      -5.00000000      -5.00000000      -5.00000000      -5.00000000      -5.00000000      -5.00000000      -5.00000000      -5.00000000      -5.00000000      -5.00000000      -5.00000000      -5.00000000      -5.00000000      -5.00000000      -5.00000000      -5.00000000      -5.00000000      -5.00000000      -5.00000000
          -5.00000000      -5.00000000      -5.00000000      -5.00000000      -5.00000000      -5.00000000      -5.00000000      -5.00000000      -5.00000000      -5.00000000      -5.00000000      -5.00000000      -5.00000000      -5.00000000      -5.00000000      -5.00000000      -5.00000000      -5.00000000      -5.00000000      -5.00000000      -5.00000000
    INTERNAL  FACTOR  1.0
         -10.00000000     -10.00000000     -10.00000000     -10.00000000     -10.00000000     -10.00000000     -10.00000000     -10.00000000     -10.00000000     -10.00000000     -10.00000000     -10.00000000     -10.00000000     -10.00000000     -10.00000000     -10.00000000     -10.00000000     -10.00000000     -10.00000000     -10.00000000     -10.00000000
         -10.00000000     -10.00000000     -10.00000000     -10.00000000     -10.00000000     -10.00000000     -10.00000000     -10.00000000     -10.00000000     -10.00000000     -10.00000000     -10.00000000     -10.00000000     -10.00000000     -10.00000000     -10.00000000     -10.00000000     -10.00000000     -10.00000000     -10.00000000     -10.00000000
         -10.00000000     -10.00000000     -10.00000000     -10.00000000     -10.00000000     -10.00000000     -10.00000000     -10.00000000     -10.00000000     -10.00000000     -10.00000000     -10.00000000     -10.00000000     -10.00000000     -10.00000000     -10.00000000     -10.00000000     -10.00000000     -10.00000000     -10.00000000     -10.00000000
         -10.00000000     -10.00000000     -10.00000000     -10.00000000     -10.00000000     -10.00000000     -10.00000000     -10.00000000     -10.00000000     -10.00000000     -10.00000000     -10.00000000     -10.00000000     -10.00000000     -10.00000000     -10.00000000     -10.00000000     -10.00000000     -10.00000000     -10.00000000     -10.00000000
         -10.00000000     -10.00000000     -10.00000000     -10.00000000     -10.00000000     -10.00000000     -10.00000000     -10.00000000     -10.00000000     -10.00000000     -10.00000000     -10.00000000     -10.00000000     -10.00000000     -10.00000000     -10.00000000     -10.00000000     -10.00000000     -10.00000000     -10.00000000     -10.00000000
         -10.00000000     -10.00000000     -10.00000000     -10.00000000     -10.00000000     -10.00000000     -10.00000000     -10.00000000     -10.00000000     -10.00000000     -10.00000000     -10.00000000     -10.00000000     -10.00000000     -10.00000000     -10.00000000     -10.00000000     -10.00000000     -10.00000000     -10.00000000     -10.00000000
         -10.00000000     -10.00000000     -10.00000000     -10.00000000     -10.00000000     -10.00000000     -10.00000000     -10.00000000     -10.00000000     -10.00000000     -10.00000000     -10.00000000     -10.00000000     -10.00000000     -10.00000000     -10.00000000     -10.00000000     -10.00000000     -10.00000000     -10.00000000     -10.00000000
         -10.00000000     -10.00000000     -10.00000000     -10.00000000     -10.00000000     -10.00000000     -10.00000000     -10.00000000     -10.00000000     -10.00000000     -10.00000000     -10.00000000     -10.00000000     -10.00000000     -10.00000000     -10.00000000     -10.00000000     -10.00000000     -10.00000000     -10.00000000     -10.00000000
         -10.00000000     -10.00000000     -10.00000000     -10.00000000     -10.00000000     -10.00000000     -10.00000000     -10.00000000     -10.00000000     -10.00000000     -10.00000000     -10.00000000     -10.00000000     -10.00000000     -10.00000000     -10.00000000     -10.00000000     -10.00000000     -10.00000000     -10.00000000     -10.00000000
         -10.00000000     -10.00000000     -10.00000000     -10.00000000     -10.00000000     -10.00000000     -10.00000000     -10.00000000     -10.00000000     -10.00000000     -10.00000000     -10.00000000     -10.00000000     -10.00000000     -10.00000000     -10.00000000     -10.00000000     -10.00000000     -10.00000000     -10.00000000     -10.00000000
         -10.00000000     -10.00000000     -10.00000000     -10.00000000     -10.00000000     -10.00000000     -10.00000000     -10.00000000     -10.00000000     -10.00000000     -10.00000000     -10.00000000     -10.00000000     -10.00000000     -10.00000000     -10.00000000     -10.00000000     -10.00000000     -10.00000000     -10.00000000     -10.00000000
         -10.00000000     -10.00000000     -10.00000000     -10.00000000     -10.00000000     -10.00000000     -10.00000000     -10.00000000     -10.00000000     -10.00000000     -10.00000000     -10.00000000     -10.00000000     -10.00000000     -10.00000000     -10.00000000     -10.00000000     -10.00000000     -10.00000000     -10.00000000     -10.00000000
         -10.00000000     -10.00000000     -10.00000000     -10.00000000     -10.00000000     -10.00000000     -10.00000000     -10.00000000     -10.00000000     -10.00000000     -10.00000000     -10.00000000     -10.00000000     -10.00000000     -10.00000000     -10.00000000     -10.00000000     -10.00000000     -10.00000000     -10.00000000     -10.00000000
         -10.00000000     -10.00000000     -10.00000000     -10.00000000     -10.00000000     -10.00000000     -10.00000000     -10.00000000     -10.00000000     -10.00000000     -10.00000000     -10.00000000     -10.00000000     -10.00000000     -10.00000000     -10.00000000     -10.00000000     -10.00000000     -10.00000000     -10.00000000     -10.00000000
         -10.00000000     -10.00000000     -10.00000000     -10.00000000     -10.00000000     -10.00000000     -10.00000000     -10.00000000     -10.00000000     -10.00000000     -10.00000000     -10.00000000     -10.00000000     -10.00000000     -10.00000000     -10.00000000     -10.00000000     -10.00000000     -10.00000000     -10.00000000     -10.00000000
         -10.00000000     -10.00000000     -10.00000000     -10.00000000     -10.00000000     -10.00000000     -10.00000000     -10.00000000     -10.00000000     -10.00000000     -10.00000000     -10.00000000     -10.00000000     -10.00000000     -10.00000000     -10.00000000     -10.00000000     -10.00000000     -10.00000000     -10.00000000     -10.00000000
         -10.00000000     -10.00000000     -10.00000000     -10.00000000     -10.00000000     -10.00000000     -10.00000000     -10.00000000     -10.00000000     -10.00000000     -10.00000000     -10.00000000     -10.00000000     -10.00000000     -10.00000000     -10.00000000     -10.00000000     -10.00000000     -10.00000000     -10.00000000     -10.00000000
         -10.00000000     -10.00000000     -10.00000000     -10.00000000     -10.00000000     -10.00000000     -10.00000000     -10.00000000     -10.00000000     -10.00000000     -10.00000000     -10.00000000     -10.00000000     -10.00000000     -10.00000000     -10.00000000     -10.00000000     -10.00000000     -10.00000000     -10.00000000     -10.00000000
         -10.00000000     -10.00000000     -10.00000000     -10.00000000     -10.00000000     -10.00000000     -10.00000000     -10.00000000     -10.00000000     -10.00000000     -10.00000000     -10.00000000     -10.00000000     -10.00000000     -10.00000000     -10.00000000     -10.00000000     -10.00000000     -10.00000000     -10.00000000     -10.00000000
         -10.00000000     -10.00000000     -10.00000000     -10.00000000     -10.00000000     -10.00000000     -10.00000000     -10.00000000     -10.00000000     -10.00000000     -10.00000000     -10.00000000     -10.00000000     -10.00000000     -10.00000000     -10.00000000     -10.00000000     -10.00000000     -10.00000000     -10.00000000     -10.00000000
         -10.00000000     -10.00000000     -10.00000000     -10.00000000     -10.00000000     -10.00000000     -10.00000000     -10.00000000     -10.00000000     -10.00000000     -10.00000000     -10.00000000     -10.00000000     -10.00000000     -10.00000000     -10.00000000     -10.00000000     -10.00000000     -10.00000000     -10.00000000     -10.00000000
END griddata

