# File generated by Flopy version 3.9.3 on 08/06/2025 at 19:25:04.
BEGIN options
END options

BEGIN griddata
  strt
    CONSTANT       5.00000000
END griddata

