# Name file for MODFLOW-2005, generated by Flopy version 3.9.3.
#xll:0.0; yll:0.0; rotation:0.0; units:meters; lenuni:2; start_datetime:1-1-1970
LIST               2  particle_demo.list
DIS               11  particle_demo.dis
BAS6              13  particle_demo.bas
LPF               15  particle_demo.lpf
CHD               24  particle_demo.chd
OC                14  particle_demo.oc
PCG               27  particle_demo.pcg
DATA(BINARY)      51  particle_demo.hds REPLACE
