# File generated by Flopy version 3.9.3 on 08/07/2025 at 11:50:41.
BEGIN options
  COMPLEXITY  simple
END options

BEGIN nonlinear
  OUTER_HCLOSE  1.00000000E-06
END nonlinear

BEGIN linear
  INNER_HCLOSE  1.00000000E-06
  inner_rclose  1.00000000E-06
END linear

