# File generated by Flopy version 3.9.3 on 08/07/2025 at 11:50:41.
BEGIN options
  BUDGET  FILEOUT  modpath_demo.cbc
  HEAD  FILEOUT  modpath_demo.hds
END options

BEGIN period  1
  SAVE  HEAD  ALL
  SAVE  BUDGET  ALL
END period  1

