# File generated by Flopy version 3.9.3 on 08/07/2025 at 11:50:41.
BEGIN options
END options

BEGIN griddata
  strt
    CONSTANT      45.00000000
END griddata

