# File generated by Flopy version 3.9.3 on 08/07/2025 at 11:50:41.
BEGIN options
  READASARRAYS
END options

BEGIN period  1
  recharge
    CONSTANT       0.00200000
END period  1

