# File generated by Flopy version 3.9.3 on 08/07/2025 at 11:50:41.
BEGIN options
END options

BEGIN dimensions
  MAXBOUND  15
END dimensions

BEGIN period  1
  1 1 12 4.50000000E+01 5.00000000E+03 4.20000000E+01
  1 2 12 4.50000000E+01 5.00000000E+03 4.20000000E+01
  1 3 12 4.50000000E+01 5.00000000E+03 4.20000000E+01
  1 4 12 4.50000000E+01 5.00000000E+03 4.20000000E+01
  1 5 12 4.50000000E+01 5.00000000E+03 4.20000000E+01
  1 6 12 4.50000000E+01 5.00000000E+03 4.20000000E+01
  1 7 12 4.50000000E+01 5.00000000E+03 4.20000000E+01
  1 8 12 4.50000000E+01 5.00000000E+03 4.20000000E+01
  1 9 12 4.50000000E+01 5.00000000E+03 4.20000000E+01
  1 10 12 4.50000000E+01 5.00000000E+03 4.20000000E+01
  1 11 12 4.50000000E+01 5.00000000E+03 4.20000000E+01
  1 12 12 4.50000000E+01 5.00000000E+03 4.20000000E+01
  1 13 12 4.50000000E+01 5.00000000E+03 4.20000000E+01
  1 14 12 4.50000000E+01 5.00000000E+03 4.20000000E+01
  1 15 12 4.50000000E+01 5.00000000E+03 4.20000000E+01
END period  1

