# File generated by Flopy version 3.9.3 on 08/07/2025 at 11:50:41.
BEGIN options
END options

BEGIN griddata
  icelltype  LAYERED
    CONSTANT  1
    CONSTANT  0
    CONSTANT  0
  k  LAYERED
    CONSTANT      25.00000000
    CONSTANT       0.01000000
    CONSTANT     100.00000000
  k33  LAYERED
    CONSTANT       5.00000000
    CONSTANT       0.01000000
    CONSTANT      10.00000000
END griddata

