# File generated by Flopy version 3.9.3 on 08/07/2025 at 11:50:41.
BEGIN options
  LENGTH_UNITS  feet
END options

BEGIN dimensions
  NLAY  3
  NROW  15
  NCOL  12
END dimensions

BEGIN griddata
  delr
    CONSTANT     100.00000000
  delc
    CONSTANT     100.00000000
  top
    CONSTANT      50.00000000
  botm  LAYERED
    CONSTANT      30.00000000
    CONSTANT      10.00000000
    CONSTANT     -10.00000000
END griddata

