# File generated by Flopy version 3.9.3 on 08/07/2025 at 11:50:41.
BEGIN options
END options

BEGIN dimensions
  MAXBOUND  1
END dimensions

BEGIN period  1
  3 8 7 -5.00000000E+04
END period  1

