# File generated by Flopy version 3.9.3 on 08/07/2025 at 18:10:57.
BEGIN options
  PRINT_OPTION  summary
  COMPLEXITY  simple
END options

BEGIN linear
  LINEAR_ACCELERATION  bicgstab
END linear

