# File generated by Flopy version 3.9.3 on 08/07/2025 at 18:10:57.
BEGIN options
END options

BEGIN griddata
  iconvert
    CONSTANT  1
  ss
    CONSTANT  1.00000000E-05
  sy
    CONSTANT       0.20000000
END griddata

