# File generated by Flopy version 3.9.3 on 08/08/2025 at 09:11:12.
BEGIN options
END options

BEGIN dimensions
  MAXBOUND  3
END dimensions

BEGIN period  1
  1 1 1 5.50000000E+00
  1 1 10 6.00000000E+00
  1 10 1 7.50000000E+00
END period  1

