# File generated by Flopy version 3.9.3 on 08/08/2025 at 09:11:12.
BEGIN options
END options

BEGIN dimensions
  MAXBOUND  5
END dimensions

BEGIN period  1
  1 1 1 -1.00500000E+02
  1 2 2 -2.00000000E+02
  1 3 3 -1.50750000E+02
  1 4 4 -3.00000000E+02
  1 5 5 -2.50500000E+02
END period  1

