# File generated by Flopy version 3.9.3 on 08/06/2025 at 23:27:55.
BEGIN options
  PRINT_OPTION  summary
  COMPLEXITY  simple
END options

