# File generated by Flopy version 3.9.3 on 08/06/2025 at 23:27:55.
BEGIN options
END options

BEGIN griddata
  strt
    CONSTANT       0.00000000
END griddata

