# File generated by Flopy version 3.9.3 on 08/06/2025 at 23:27:55.
BEGIN options
  READASARRAYS
END options

BEGIN period  1
  recharge
    CONSTANT       0.00100000
END period  1

