# File generated by Flopy version 3.9.3 on 08/06/2025 at 23:27:55.
BEGIN options
END options

BEGIN dimensions
  NPER  2
END dimensions

BEGIN perioddata
      10.00000000  5       1.00000000
      10.00000000  5       1.00000000
END perioddata

