# File generated by Flopy version 3.9.3 on 08/06/2025 at 23:27:55.
BEGIN options
  BUDGET  FILEOUT  binary_demo.cbb
  HEAD  FILEOUT  binary_demo.hds
END options

BEGIN period  1
  SAVE  HEAD  ALL
  SAVE  BUDGET  ALL
END period  1

