# File generated by Flopy version 3.9.3 on 08/06/2025 at 23:27:55.
BEGIN options
  SAVE_FLOWS
END options

BEGIN packages
  DIS6  binary_demo.dis  dis
  NPF6  binary_demo.npf  npf
  STO6  binary_demo.sto  sto
  IC6  binary_demo.ic  ic
  CHD6  binary_demo.chd  chd_0
  RCH6  binary_demo.rcha  rcha_0
  OC6  binary_demo.oc  oc
END packages

