# File generated by Flopy version 3.9.3 on 08/06/2025 at 23:27:55.
BEGIN options
END options

BEGIN timing
  TDIS6  binary_demo.tdis
END timing

BEGIN models
  gwf6  binary_demo.nam  binary_demo
END models

BEGIN exchanges
END exchanges

BEGIN solutiongroup  1
  ims6  binary_demo.ims  binary_demo
END solutiongroup  1

