# Name file for MODFLOW-2005, generated by Flopy version 3.9.3.
#xll:0.0; yll:0.0; rotation:0.0; units:meters; lenuni:2; start_datetime:1-1-1970
LIST               2  obs_demo.list
DIS               11  obs_demo.dis
BAS6              13  obs_demo.bas
LPF               15  obs_demo.lpf
PCG               27  obs_demo.pcg
HOB               39  obs_demo.hob
DRN               21  obs_demo.drn
DROB              42  obs_demo.drob
DATA             142  obs_demo.obd
DATA              51  obs_demo.hob.out
DATA(BINARY)      53  obs_demo.cbc REPLACE
