# DROB for MODFLOW, generated by Flopy.
         2         2         2       142
1.000000e+00
         1         1
DRAIN_1            1               0       -250
         1         6         6  1.000000
         1         1
DRAIN_2            1               0       -180
         1         9         9  1.000000
