# File generated by Flopy version 3.9.3 on 08/07/2025 at 01:50:35.
BEGIN options
END options

BEGIN period  1
  PRINT  HEAD  ALL
  PRINT  BUDGET  ALL
END period  1

