# File generated by Flopy version 3.9.3 on 08/07/2025 at 08:26:29.
BEGIN options
  PRINT_OPTION  summary
END options

BEGIN nonlinear
  OUTER_DVCLOSE  1.00000000E-08
  OUTER_MAXIMUM  1000
END nonlinear

BEGIN linear
  INNER_MAXIMUM  100
  INNER_DVCLOSE  1.00000000E-09
  LINEAR_ACCELERATION  bicgstab
END linear

