# File generated by Flopy version 3.9.3 on 08/07/2025 at 01:50:35.
BEGIN options
  PRINT_INPUT
  NEWTON  UNDER_RELAXATION
END options

BEGIN packages
  DIS6  lake_connections_demo.dis  dis
  IC6  lake_connections_demo.ic  ic
  NPF6  lake_connections_demo.npf  npf
  CHD6  lake_connections_demo.chd  chd_0
  RCH6  lake_connections_demo.rcha  rcha_0
  EVT6  lake_connections_demo.evta  evta_0
  LAK6  lake_connections_demo.lak  lak-1
  OC6  lake_connections_demo.oc  oc
END packages

