# File generated by Flopy version 3.9.3 on 08/07/2025 at 01:50:35.
BEGIN options
END options

BEGIN griddata
  icelltype
    CONSTANT  1
  k
    CONSTANT      30.00000000
  k33  LAYERED
    CONSTANT    1179.00000000
    CONSTANT      30.00000000
    CONSTANT      30.00000000
    CONSTANT      30.00000000
    CONSTANT      30.00000000
END griddata

