# File generated by Flopy version 3.9.3 on 08/07/2025 at 08:26:29.
BEGIN options
  PRINT_INPUT
  NEWTON  UNDER_RELAXATION
END options

BEGIN packages
  DIS6  lakeconnect.dis  dis
  IC6  lakeconnect.ic  ic
  NPF6  lakeconnect.npf  npf
  CHD6  lakeconnect.chd  chd_0
  RCH6  lakeconnect.rcha  rcha_0
  EVT6  lakeconnect.evta  evta_0
  LAK6  lakeconnect.lak  lak-1
  OC6  lakeconnect.oc  oc
END packages

