# File generated by Flopy version 3.9.3 on 08/07/2025 at 01:50:35.
BEGIN options
  READASARRAYS
END options

BEGIN period  1
  surface
    INTERNAL  FACTOR  1.0
       500.00000000     500.00000000     500.00000000     500.00000000     500.00000000     500.00000000     500.00000000     500.00000000     500.00000000     500.00000000     500.00000000     500.00000000     500.00000000     500.00000000     500.00000000     500.00000000     500.00000000
       500.00000000     500.00000000     500.00000000     500.00000000     500.00000000     500.00000000     500.00000000     500.00000000     500.00000000     500.00000000     500.00000000     500.00000000     500.00000000     500.00000000     500.00000000     500.00000000     500.00000000
       500.00000000     500.00000000     500.00000000     500.00000000     500.00000000     500.00000000     500.00000000     500.00000000     500.00000000     500.00000000     500.00000000     500.00000000     500.00000000     500.00000000     500.00000000     500.00000000     500.00000000
       500.00000000     500.00000000     500.00000000     500.00000000     500.00000000     500.00000000     500.00000000     500.00000000     500.00000000     500.00000000     500.00000000     500.00000000     500.00000000     500.00000000     500.00000000     500.00000000     500.00000000
       500.00000000     500.00000000     500.00000000     500.00000000     500.00000000     500.00000000     500.00000000     500.00000000     500.00000000     500.00000000     500.00000000     500.00000000     500.00000000     500.00000000     500.00000000     500.00000000     500.00000000
       500.00000000     500.00000000     500.00000000     500.00000000     500.00000000     500.00000000     500.00000000     500.00000000     500.00000000     500.00000000     500.00000000     500.00000000     500.00000000     500.00000000     500.00000000     500.00000000     500.00000000
       500.00000000     500.00000000     500.00000000     500.00000000     500.00000000     500.00000000     500.00000000     500.00000000     500.00000000     500.00000000     500.00000000     500.00000000     500.00000000     500.00000000     500.00000000     500.00000000     500.00000000
       500.00000000     500.00000000     500.00000000     500.00000000     500.00000000     500.00000000     500.00000000     500.00000000     500.00000000     500.00000000     500.00000000     500.00000000     500.00000000     500.00000000     500.00000000     500.00000000     500.00000000
       500.00000000     500.00000000     500.00000000     500.00000000     500.00000000     500.00000000     500.00000000     500.00000000     500.00000000     500.00000000     500.00000000     500.00000000     500.00000000     500.00000000     500.00000000     500.00000000     500.00000000
       500.00000000     500.00000000     500.00000000     500.00000000     500.00000000     500.00000000     500.00000000     500.00000000     500.00000000     500.00000000     500.00000000     500.00000000     500.00000000     500.00000000     500.00000000     500.00000000     500.00000000
       500.00000000     500.00000000     500.00000000     500.00000000     500.00000000     500.00000000     500.00000000     500.00000000     500.00000000     500.00000000     500.00000000     500.00000000     500.00000000     500.00000000     500.00000000     500.00000000     500.00000000
       500.00000000     500.00000000     500.00000000     500.00000000     500.00000000     500.00000000     500.00000000     500.00000000     500.00000000     500.00000000     500.00000000     500.00000000     500.00000000     500.00000000     500.00000000     500.00000000     500.00000000
       500.00000000     500.00000000     500.00000000     500.00000000     500.00000000     500.00000000     500.00000000     500.00000000     500.00000000     500.00000000     500.00000000     500.00000000     500.00000000     500.00000000     500.00000000     500.00000000     500.00000000
       500.00000000     500.00000000     500.00000000     500.00000000     500.00000000     500.00000000     500.00000000     500.00000000     500.00000000     500.00000000     500.00000000     500.00000000     500.00000000     500.00000000     500.00000000     500.00000000     500.00000000
       500.00000000     500.00000000     500.00000000     500.00000000     500.00000000     500.00000000     500.00000000     500.00000000     500.00000000     500.00000000     500.00000000     500.00000000     500.00000000     500.00000000     500.00000000     500.00000000     500.00000000
       500.00000000     500.00000000     500.00000000     500.00000000     500.00000000     500.00000000     500.00000000     500.00000000     500.00000000     500.00000000     500.00000000     500.00000000     500.00000000     500.00000000     500.00000000     500.00000000     500.00000000
       500.00000000     500.00000000     500.00000000     500.00000000     500.00000000     500.00000000     500.00000000     500.00000000     500.00000000     500.00000000     500.00000000     500.00000000     500.00000000     500.00000000     500.00000000     500.00000000     500.00000000
  rate
    CONSTANT       0.01410000
  depth
    CONSTANT      15.00000000
END period  1

