# File generated by Flopy version 3.9.3 on 08/07/2025 at 08:26:29.
BEGIN options
END options

BEGIN timing
  TDIS6  lakeconnect.tdis
END timing

BEGIN models
  gwf6  lakeconnect.nam  lakeconnect
END models

BEGIN exchanges
END exchanges

BEGIN solutiongroup  1
  ims6  lakeconnect.ims  lakeconnect
END solutiongroup  1

