# File generated by Flopy version 3.9.3 on 08/08/2025 at 18:39:09.
BEGIN options
END options

BEGIN dimensions
  NLAY  1
  NROW  10
  NCOL  10
END dimensions

BEGIN griddata
  delr
    CONSTANT     100.00000000
  delc
    CONSTANT     100.00000000
  top
    CONSTANT     100.00000000
  botm
    CONSTANT       0.00000000
END griddata

