# File generated by Flopy version 3.9.3 on 08/08/2025 at 18:39:09.
BEGIN options
  SAVE_FLOWS
END options

BEGIN packages
  DIS6  gwf_model.dis  dis
  IC6  gwf_model.ic  ic
  NPF6  gwf_model.npf  npf
  OC6  gwf_model.oc  oc
END packages

