# File generated by Flopy version 3.9.3 on 08/07/2025 at 09:00:06.
BEGIN options
END options

BEGIN griddata
  strt
    CONSTANT      50.00000000
END griddata

