# MODFLOW 6 Simulation with Metadata
# crs:EPSG:4326
# rotation:0.0
# start_datetime:2025-01-01
#
# File generated by Flopy version 3.9.3 on 08/08/2025 at 18:39:09.
BEGIN options
END options

BEGIN timing
  TDIS6  mf6_metadata.tdis
END timing

BEGIN models
  gwf6  gwf_model.nam  gwf_model
END models

BEGIN exchanges
END exchanges

BEGIN solutiongroup  1
  ims6  mf6_metadata.ims  gwf_model
END solutiongroup  1

