# WEL package for MODFLOW-NWT generated by Flopy 3.9.3
         4         0 
         4         0 # stress period 1
         1         4         4          -100.0
         1         7         4          -100.0
         1         4         7          -100.0
         1         7         7          -100.0
        -1         0 # stress period 2
