# DIS package for MODFLOW-NWT generated by Flopy 3.9.3
         1        10        10         2         4         2
  0
CONSTANT    1.000000E+02                           #delr                          
CONSTANT    1.000000E+02                           #delc                          
CONSTANT    1.000000E+02                           #model_top                     
CONSTANT    5.000000E+01                           #botm layer 1                  
    180.000000             6  1.000000  TR
    185.000000             1  1.000000  TR
