# Name file for MODFLOW-NWT, generated by Flopy version 3.9.3.
#xll:0.0; yll:0.0; rotation:0.0; units:meters; lenuni:2; start_datetime:1-1-1970
LIST               2  agtest_sfr.list
DIS               11  agtest_sfr.dis
BAS6              13  agtest_sfr.bas
UPW               31  agtest_sfr.upw
SFR               17  agtest_sfr.sfr
WEL               20  agtest_sfr.wel
NWT               32  agtest_sfr.nwt
OC                14  agtest_sfr.oc
DATA(BINARY)      51  agtest_sfr.hds REPLACE
