# CHD package for MODFLOW-2005 generated by Flopy 3.9.3
       186
       186         0 # stress period 1
         1         1         1            95.0            95.0
         1         1        52            85.0            85.0
         1         2         1            95.0            95.0
         1         2        52            85.0            85.0
         1         3         1            95.0            95.0
         1         3        52            85.0            85.0
         1         4         1            95.0            95.0
         1         4        52            85.0            85.0
         1         5         1            95.0            95.0
         1         5        52            85.0            85.0
         1         6         1            95.0            95.0
         1         6        52            85.0            85.0
         1         7         1            95.0            95.0
         1         7        52            85.0            85.0
         1         8         1            95.0            95.0
         1         8        52            85.0            85.0
         1         9         1            95.0            95.0
         1         9        52            85.0            85.0
         1        10         1            95.0            95.0
         1        10        52            85.0            85.0
         1        11         1            95.0            95.0
         1        11        52            85.0            85.0
         1        12         1            95.0            95.0
         1        12        52            85.0            85.0
         1        13         1            95.0            95.0
         1        13        52            85.0            85.0
         1        14         1            95.0            95.0
         1        14        52            85.0            85.0
         1        15         1            95.0            95.0
         1        15        52            85.0            85.0
         1        16         1            95.0            95.0
         1        16        52            85.0            85.0
         1        17         1            95.0            95.0
         1        17        52            85.0            85.0
         1        18         1            95.0            95.0
         1        18        52            85.0            85.0
         1        19         1            95.0            95.0
         1        19        52            85.0            85.0
         1        20         1            95.0            95.0
         1        20        52            85.0            85.0
         1        21         1            95.0            95.0
         1        21        52            85.0            85.0
         1        22         1            95.0            95.0
         1        22        52            85.0            85.0
         1        23         1            95.0            95.0
         1        23        52            85.0            85.0
         1        24         1            95.0            95.0
         1        24        52            85.0            85.0
         1        25         1            95.0            95.0
         1        25        52            85.0            85.0
         1        26         1            95.0            95.0
         1        26        52            85.0            85.0
         1        27         1            95.0            95.0
         1        27        52            85.0            85.0
         1        28         1            95.0            95.0
         1        28        52            85.0            85.0
         1        29         1            95.0            95.0
         1        29        52            85.0            85.0
         1        30         1            95.0            95.0
         1        30        52            85.0            85.0
         1        31         1            95.0            95.0
         1        31        52            85.0            85.0
         1        32         1            95.0            95.0
         1        32        52            85.0            85.0
         1        33         1            95.0            95.0
         1        33        52            85.0            85.0
         1        34         1            95.0            95.0
         1        34        52            85.0            85.0
         1        35         1            95.0            95.0
         1        35        52            85.0            85.0
         1        36         1            95.0            95.0
         1        36        52            85.0            85.0
         1        37         1            95.0            95.0
         1        37        52            85.0            85.0
         1        38         1            95.0            95.0
         1        38        52            85.0            85.0
         1        39         1            95.0            95.0
         1        39        52            85.0            85.0
         1        40         1            95.0            95.0
         1        40        52            85.0            85.0
         1        41         1            95.0            95.0
         1        41        52            85.0            85.0
         1        42         1            95.0            95.0
         1        42        52            85.0            85.0
         1        43         1            95.0            95.0
         1        43        52            85.0            85.0
         1        44         1            95.0            95.0
         1        44        52            85.0            85.0
         1        45         1            95.0            95.0
         1        45        52            85.0            85.0
         1        46         1            95.0            95.0
         1        46        52            85.0            85.0
         1        47         1            95.0            95.0
         1        47        52            85.0            85.0
         1        48         1            95.0            95.0
         1        48        52            85.0            85.0
         1        49         1            95.0            95.0
         1        49        52            85.0            85.0
         1        50         1            95.0            95.0
         1        50        52            85.0            85.0
         1        51         1            95.0            95.0
         1        51        52            85.0            85.0
         1        52         1            95.0            95.0
         1        52        52            85.0            85.0
         1        53         1            95.0            95.0
         1        53        52            85.0            85.0
         1        54         1            95.0            95.0
         1        54        52            85.0            85.0
         1        55         1            95.0            95.0
         1        55        52            85.0            85.0
         1        56         1            95.0            95.0
         1        56        52            85.0            85.0
         1        57         1            95.0            95.0
         1        57        52            85.0            85.0
         1        58         1            95.0            95.0
         1        58        52            85.0            85.0
         1        59         1            95.0            95.0
         1        59        52            85.0            85.0
         1        60         1            95.0            95.0
         1        60        52            85.0            85.0
         1        61         1            95.0            95.0
         1        61        52            85.0            85.0
         1        62         1            95.0            95.0
         1        62        52            85.0            85.0
         1        63         1            95.0            95.0
         1        63        52            85.0            85.0
         1        64         1            95.0            95.0
         1        64        52            85.0            85.0
         1        65         1            95.0            95.0
         1        65        52            85.0            85.0
         1        66         1            95.0            95.0
         1        66        52            85.0            85.0
         1        67         1            95.0            95.0
         1        67        52            85.0            85.0
         1        68         1            95.0            95.0
         1        68        52            85.0            85.0
         1        69         1            95.0            95.0
         1        69        52            85.0            85.0
         1        70         1            95.0            95.0
         1        70        52            85.0            85.0
         1        71         1            95.0            95.0
         1        71        52            85.0            85.0
         1        72         1            95.0            95.0
         1        72        52            85.0            85.0
         1        73         1            95.0            95.0
         1        73        52            85.0            85.0
         1        74         1            95.0            95.0
         1        74        52            85.0            85.0
         1        75         1            95.0            95.0
         1        75        52            85.0            85.0
         1        76         1            95.0            95.0
         1        76        52            85.0            85.0
         1        77         1            95.0            95.0
         1        77        52            85.0            85.0
         1        78         1            95.0            95.0
         1        78        52            85.0            85.0
         1        79         1            95.0            95.0
         1        79        52            85.0            85.0
         1        80         1            95.0            95.0
         1        80        52            85.0            85.0
         1        81         1            95.0            95.0
         1        81        52            85.0            85.0
         1        82         1            95.0            95.0
         1        82        52            85.0            85.0
         1        83         1            95.0            95.0
         1        83        52            85.0            85.0
         1        84         1            95.0            95.0
         1        84        52            85.0            85.0
         1        85         1            95.0            95.0
         1        85        52            85.0            85.0
         1        86         1            95.0            95.0
         1        86        52            85.0            85.0
         1        87         1            95.0            95.0
         1        87        52            85.0            85.0
         1        88         1            95.0            95.0
         1        88        52            85.0            85.0
         1        89         1            95.0            95.0
         1        89        52            85.0            85.0
         1        90         1            95.0            95.0
         1        90        52            85.0            85.0
         1        91         1            95.0            95.0
         1        91        52            85.0            85.0
         1        92         1            95.0            95.0
         1        92        52            85.0            85.0
         1        93         1            95.0            95.0
         1        93        52            85.0            85.0
