# DIS package for MODFLOW-2005 generated by Flopy 3.9.3
         3        93        52         1         1         1
  0  0  0
CONSTANT    6.400000E+02                           #delr                          
CONSTANT    6.400000E+02                           #delc                          
CONSTANT    1.000000E+02                           #model_top                     
CONSTANT    8.000000E+01                           #botm layer 1                  
CONSTANT    6.000000E+01                           #botm layer 2                  
CONSTANT    4.000000E+01                           #botm layer 3                  
      1.000000             1  1.000000  SS
