# Name file for MODFLOW-2005, generated by Flopy version 3.9.3.
#xll:0.0; yll:0.0; rotation:0.0; units:meters; lenuni:2; start_datetime:1-1-1970
LIST               2  dis_variable.list
DIS               11  dis_variable.dis
BAS6              13  dis_variable.bas
LPF               15  dis_variable.lpf
WEL               20  dis_variable.wel
OC                14  dis_variable.oc
PCG               27  dis_variable.pcg
DATA(BINARY)      51  dis_variable.hds REPLACE
