# Name file for MODFLOW-2005, generated by Flopy version 3.9.3.
#xll:2709517.939324714; yll:1125190.7223740811; rotation:-39; crs:EPSG:2243; units:feet; lenuni:1; start_datetime:1-1-1970
LIST               2  dis_demo.list
DIS               11  dis_demo.dis
BAS6              13  dis_demo.bas
LPF               15  dis_demo.lpf
CHD               24  dis_demo.chd
OC                14  dis_demo.oc
PCG               27  dis_demo.pcg
DATA(BINARY)      51  dis_demo.hds REPLACE
