# File generated by Flopy version 3.9.3 on 08/07/2025 at 01:54:29.
BEGIN options
END options

BEGIN dimensions
  NLAY  3
  NROW  10
  NCOL  10
END dimensions

BEGIN griddata
  delr
    CONSTANT     100.00000000
  delc
    CONSTANT     100.00000000
  top
    CONSTANT     100.00000000
  botm  LAYERED
    CONSTANT      50.00000000
    CONSTANT       0.00000000
    CONSTANT     -50.00000000
END griddata

