# File generated by Flopy version 3.9.3 on 08/07/2025 at 01:54:29.
BEGIN options
END options

BEGIN dimensions
  MAXBOUND  60
END dimensions

BEGIN period  1
  1 1 1 9.00000000E+01
  1 1 2 9.00000000E+01
  1 1 3 9.00000000E+01
  1 1 4 9.00000000E+01
  1 1 5 9.00000000E+01
  1 1 6 9.00000000E+01
  1 1 7 9.00000000E+01
  1 1 8 9.00000000E+01
  1 1 9 9.00000000E+01
  1 1 10 9.00000000E+01
  1 10 1 6.00000000E+01
  1 10 2 6.00000000E+01
  1 10 3 6.00000000E+01
  1 10 4 6.00000000E+01
  1 10 5 6.00000000E+01
  1 10 6 6.00000000E+01
  1 10 7 6.00000000E+01
  1 10 8 6.00000000E+01
  1 10 9 6.00000000E+01
  1 10 10 6.00000000E+01
  2 1 1 9.00000000E+01
  2 1 2 9.00000000E+01
  2 1 3 9.00000000E+01
  2 1 4 9.00000000E+01
  2 1 5 9.00000000E+01
  2 1 6 9.00000000E+01
  2 1 7 9.00000000E+01
  2 1 8 9.00000000E+01
  2 1 9 9.00000000E+01
  2 1 10 9.00000000E+01
  2 10 1 6.00000000E+01
  2 10 2 6.00000000E+01
  2 10 3 6.00000000E+01
  2 10 4 6.00000000E+01
  2 10 5 6.00000000E+01
  2 10 6 6.00000000E+01
  2 10 7 6.00000000E+01
  2 10 8 6.00000000E+01
  2 10 9 6.00000000E+01
  2 10 10 6.00000000E+01
  3 1 1 9.00000000E+01
  3 1 2 9.00000000E+01
  3 1 3 9.00000000E+01
  3 1 4 9.00000000E+01
  3 1 5 9.00000000E+01
  3 1 6 9.00000000E+01
  3 1 7 9.00000000E+01
  3 1 8 9.00000000E+01
  3 1 9 9.00000000E+01
  3 1 10 9.00000000E+01
  3 10 1 6.00000000E+01
  3 10 2 6.00000000E+01
  3 10 3 6.00000000E+01
  3 10 4 6.00000000E+01
  3 10 5 6.00000000E+01
  3 10 6 6.00000000E+01
  3 10 7 6.00000000E+01
  3 10 8 6.00000000E+01
  3 10 9 6.00000000E+01
  3 10 10 6.00000000E+01
END period  1

