# File generated by Flopy version 3.9.3 on 08/07/2025 at 01:54:29.
BEGIN options
  BUDGET  FILEOUT  listbudget.cbc
  HEAD  FILEOUT  listbudget.hds
END options

BEGIN period  1
  SAVE  HEAD  ALL
  SAVE  BUDGET  ALL
  PRINT  HEAD  ALL
  PRINT  BUDGET  ALL
END period  1

