# File generated by Flopy version 3.9.3 on 08/07/2025 at 01:54:29.
BEGIN options
  PRINT_INPUT
  SAVE_FLOWS
END options

BEGIN packages
  DIS6  listbudget.dis  dis
  IC6  listbudget.ic  ic
  NPF6  listbudget.npf  npf
  CHD6  listbudget.chd  chd_0
  WEL6  listbudget.wel  wel_0
  OC6  listbudget.oc  oc
END packages

