# File generated by Flopy version 3.9.3 on 08/07/2025 at 01:54:29.
BEGIN options
END options

BEGIN dimensions
  MAXBOUND  2
END dimensions

BEGIN period  1
  2 6 6 -1.00000000E+03
  3 4 8 -5.00000000E+02
END period  1

BEGIN period  2
  2 6 6 -2.00000000E+03
  3 4 8 -1.00000000E+03
END period  2

BEGIN period  3
  2 6 6 -3.00000000E+03
  3 4 8 -1.50000000E+03
END period  3

BEGIN period  4
  2 6 6 -4.00000000E+03
  3 4 8 -2.00000000E+03
END period  4

BEGIN period  5
  2 6 6 -5.00000000E+03
  3 4 8 -2.50000000E+03
END period  5

