# File generated by Flopy version 3.9.3 on 08/07/2025 at 01:54:29.
BEGIN options
END options

BEGIN timing
  TDIS6  listbudget.tdis
END timing

BEGIN models
  gwf6  listbudget.nam  listbudget
END models

BEGIN exchanges
END exchanges

BEGIN solutiongroup  1
  ims6  listbudget.ims  listbudget
END solutiongroup  1

