# Name file for MODFLOW-2005, generated by Flopy version 3.9.3.
#xll:0.0; yll:0.0; rotation:0.0; units:meters; lenuni:2; start_datetime:1-1-1970
LIST               2  swi2_demo.list
DIS               11  swi2_demo.dis
BAS6              13  swi2_demo.bas
LPF               15  swi2_demo.lpf
RCH               19  swi2_demo.rch
WEL               20  swi2_demo.wel
SWI2              29  swi2_demo.swi2
PCG               27  swi2_demo.pcg
OC                14  swi2_demo.oc
DATA(BINARY)      51  swi2_demo.hds REPLACE
