# RIV package for MODFLOW-2005 generated by Flopy 3.9.3
        20        53
        20         0 # stress period 1
         1         1         1            40.0            50.0            38.0
         1         2         3            40.0            50.0            38.0
         1         3         5            40.0            50.0            38.0
         1         4         7            40.0            50.0            38.0
         1         5         9            40.0            50.0            38.0
         1         6        11            40.0            50.0            38.0
         1         7        13            40.0            50.0            38.0
         1         8        15            40.0            50.0            38.0
         1         9        17            40.0            50.0            38.0
         1        10        20            40.0            50.0            38.0
         1         3         4            39.5            25.0            37.5
         1         3         5            39.5            25.0            37.5
         1         3         6            39.5            25.0            37.5
         1         3         7            39.5            25.0            37.5
         1         3         8            39.5            25.0            37.5
         1         8        13            39.5            25.0            37.5
         1         8        14            39.5            25.0            37.5
         1         8        15            39.5            25.0            37.5
         1         8        16            39.5            25.0            37.5
         1         8        17            39.5            25.0            37.5
