# BAS6 package for MODFLOW-2005 generated by Flopy 3.9.3
FREE
INTERNAL               1    (20I10) -1 #ibound layer 1                
        -1         1         1         1         1         1         1         1         1         1         1         1         1         1         1         1         1         1         1        -1
        -1         1         1         1         1         1         1         1         1         1         1         1         1         1         1         1         1         1         1        -1
        -1         1         1         1         1         1         1         1         1         1         1         1         1         1         1         1         1         1         1        -1
        -1         1         1         1         1         1         1         1         1         1         1         1         1         1         1         1         1         1         1        -1
        -1         1         1         1         1         1         1         1         1         1         1         1         1         1         1         1         1         1         1        -1
        -1         1         1         1         1         1         1         1         1         1         1         1         1         1         1         1         1         1         1        -1
        -1         1         1         1         1         1         1         1         1         1         1         1         1         1         1         1         1         1         1        -1
        -1         1         1         1         1         1         1         1         1         1         1         1         1         1         1         1         1         1         1        -1
        -1         1         1         1         1         1         1         1         1         1         1         1         1         1         1         1         1         1         1        -1
        -1         1         1         1         1         1         1         1         1         1         1         1         1         1         1         1         1         1         1        -1
   -999.99
INTERNAL               1  (20E15.6) -1 #strt layer 1                  
   4.500000E+01   4.450000E+01   4.400000E+01   4.350000E+01   4.300000E+01   4.250000E+01   4.200000E+01   4.150000E+01   4.100000E+01   4.050000E+01   4.000000E+01   3.950000E+01   3.900000E+01   3.850000E+01   3.800000E+01   3.750000E+01   3.700000E+01   3.650000E+01   3.600000E+01   3.550000E+01
   4.500000E+01   4.450000E+01   4.400000E+01   4.350000E+01   4.300000E+01   4.250000E+01   4.200000E+01   4.150000E+01   4.100000E+01   4.050000E+01   4.000000E+01   3.950000E+01   3.900000E+01   3.850000E+01   3.800000E+01   3.750000E+01   3.700000E+01   3.650000E+01   3.600000E+01   3.550000E+01
   4.500000E+01   4.450000E+01   4.400000E+01   4.350000E+01   4.300000E+01   4.250000E+01   4.200000E+01   4.150000E+01   4.100000E+01   4.050000E+01   4.000000E+01   3.950000E+01   3.900000E+01   3.850000E+01   3.800000E+01   3.750000E+01   3.700000E+01   3.650000E+01   3.600000E+01   3.550000E+01
   4.500000E+01   4.450000E+01   4.400000E+01   4.350000E+01   4.300000E+01   4.250000E+01   4.200000E+01   4.150000E+01   4.100000E+01   4.050000E+01   4.000000E+01   3.950000E+01   3.900000E+01   3.850000E+01   3.800000E+01   3.750000E+01   3.700000E+01   3.650000E+01   3.600000E+01   3.550000E+01
   4.500000E+01   4.450000E+01   4.400000E+01   4.350000E+01   4.300000E+01   4.250000E+01   4.200000E+01   4.150000E+01   4.100000E+01   4.050000E+01   4.000000E+01   3.950000E+01   3.900000E+01   3.850000E+01   3.800000E+01   3.750000E+01   3.700000E+01   3.650000E+01   3.600000E+01   3.550000E+01
   4.500000E+01   4.450000E+01   4.400000E+01   4.350000E+01   4.300000E+01   4.250000E+01   4.200000E+01   4.150000E+01   4.100000E+01   4.050000E+01   4.000000E+01   3.950000E+01   3.900000E+01   3.850000E+01   3.800000E+01   3.750000E+01   3.700000E+01   3.650000E+01   3.600000E+01   3.550000E+01
   4.500000E+01   4.450000E+01   4.400000E+01   4.350000E+01   4.300000E+01   4.250000E+01   4.200000E+01   4.150000E+01   4.100000E+01   4.050000E+01   4.000000E+01   3.950000E+01   3.900000E+01   3.850000E+01   3.800000E+01   3.750000E+01   3.700000E+01   3.650000E+01   3.600000E+01   3.550000E+01
   4.500000E+01   4.450000E+01   4.400000E+01   4.350000E+01   4.300000E+01   4.250000E+01   4.200000E+01   4.150000E+01   4.100000E+01   4.050000E+01   4.000000E+01   3.950000E+01   3.900000E+01   3.850000E+01   3.800000E+01   3.750000E+01   3.700000E+01   3.650000E+01   3.600000E+01   3.550000E+01
   4.500000E+01   4.450000E+01   4.400000E+01   4.350000E+01   4.300000E+01   4.250000E+01   4.200000E+01   4.150000E+01   4.100000E+01   4.050000E+01   4.000000E+01   3.950000E+01   3.900000E+01   3.850000E+01   3.800000E+01   3.750000E+01   3.700000E+01   3.650000E+01   3.600000E+01   3.550000E+01
   4.500000E+01   4.450000E+01   4.400000E+01   4.350000E+01   4.300000E+01   4.250000E+01   4.200000E+01   4.150000E+01   4.100000E+01   4.050000E+01   4.000000E+01   3.950000E+01   3.900000E+01   3.850000E+01   3.800000E+01   3.750000E+01   3.700000E+01   3.650000E+01   3.600000E+01   3.550000E+01
