# Name file for MODFLOW-2005, generated by Flopy version 3.9.3.
#xll:0.0; yll:0.0; rotation:0.0; units:meters; lenuni:2; start_datetime:1-1-1970
LIST               2  riv_demo.list
DIS               11  riv_demo.dis
BAS6              13  riv_demo.bas
LPF               15  riv_demo.lpf
RIV               18  riv_demo.riv
OC                14  riv_demo.oc
PCG               27  riv_demo.pcg
DATA(BINARY)      53  riv_demo.cbc REPLACE
DATA(BINARY)      51  riv_demo.hds REPLACE
