# PCG package for MODFLOW-2005 generated by Flopy 3.9.3
200 100 1 0
0.01 0.1 1.0 0 0 3 1.0 
