# File generated by Flopy version 3.9.3 on 08/07/2025 at 18:15:31.
BEGIN options
END options

BEGIN packages
  DIS6  io_demo.dis  dis
  NPF6  io_demo.npf  npf
  IC6  io_demo.ic  ic
  CHD6  io_demo.chd  chd_0
  OC6  io_demo.oc  oc
END packages

