# File generated by Flopy version 3.9.3 on 08/08/2025 at 09:11:15.
BEGIN options
END options

BEGIN dimensions
  MAXBOUND  2
END dimensions

BEGIN period  1
  1 1 1 5.00000000E+00
  1 10 10 4.00000000E+00
END period  1

