# File generated by Flopy version 3.9.3 on 08/07/2025 at 18:15:31.
BEGIN options
  PRINT_OPTION  summary
  COMPLEXITY  simple
END options

