# File generated by Flopy version 3.9.3 on 08/07/2025 at 18:15:31.
BEGIN options
  SAVE_FLOWS
END options

BEGIN griddata
  icelltype
    CONSTANT  1
  k
    CONSTANT      10.00000000
END griddata

