# File generated by Flopy version 3.9.3 on 08/08/2025 at 09:11:15.
BEGIN options
END options

BEGIN griddata
  strt
    CONSTANT       5.00000000
END griddata

