# File generated by Flopy version 3.9.3 on 08/07/2025 at 18:15:31.
BEGIN options
  BUDGET  FILEOUT  io_demo.cbc
  HEAD  FILEOUT  io_demo.hds
END options

BEGIN period  1
  SAVE  HEAD  ALL
  SAVE  BUDGET  ALL
END period  1

