# Name file for MODFLOW-2005, generated by Flopy version 3.9.3.
#xll:0.0; yll:0.0; rotation:0.0; units:meters; lenuni:2; start_datetime:1-1-1970
LIST               2  rch_demo.list
DIS               11  rch_demo.dis
BAS6              13  rch_demo.bas
LPF               15  rch_demo.lpf
RCH               19  rch_demo.rch
OC                14  rch_demo.oc
PCG               27  rch_demo.pcg
DATA(BINARY)      53  rch_demo.cbc REPLACE
DATA(BINARY)      51  rch_demo.hds REPLACE
