# BAS6 package for MODFLOW-2005 generated by Flopy 3.9.3
FREE
INTERNAL               1    (16I10) -1 #ibound layer 1                
        -1         1         1         1         1         1         1         1         1         1         1         1         1         1         1        -1
        -1         1         1         1         1         1         1         1         1         1         1         1         1         1         1        -1
        -1         1         1         1         1         1         1         1         1         1         1         1         1         1         1        -1
        -1         1         1         1         1         1         1         1         1         1         1         1         1         1         1        -1
        -1         1         1         1         1         1         1         1         1         1         1         1         1         1         1        -1
        -1         1         1         1         1         1         1         1         1         1         1         1         1         1         1        -1
        -1         1         1         1         1         1         1         1         1         1         1         1         1         1         1        -1
        -1         1         1         1         1         1         1         1         1         1         1         1         1         1         1        -1
        -1         1         1         1         1         1         1         1         1         1         1         1         1         1         1        -1
        -1         1         1         1         1         1         1         1         1         1         1         1         1         1         1        -1
        -1         1         1         1         1         1         1         1         1         1         1         1         1         1         1        -1
        -1         1         1         1         1         1         1         1         1         1         1         1         1         1         1        -1
   -999.99
INTERNAL               1  (16E15.6) -1 #strt layer 1                  
   7.500000E+01   7.470000E+01   7.440000E+01   7.410000E+01   7.380000E+01   7.350000E+01   7.320000E+01   7.290000E+01   7.260000E+01   7.230000E+01   7.200000E+01   7.170000E+01   7.140000E+01   7.110000E+01   7.080000E+01   7.050000E+01
   7.500000E+01   7.470000E+01   7.440000E+01   7.410000E+01   7.380000E+01   7.350000E+01   7.320000E+01   7.290000E+01   7.260000E+01   7.230000E+01   7.200000E+01   7.170000E+01   7.140000E+01   7.110000E+01   7.080000E+01   7.050000E+01
   7.500000E+01   7.470000E+01   7.440000E+01   7.410000E+01   7.380000E+01   7.350000E+01   7.320000E+01   7.290000E+01   7.260000E+01   7.230000E+01   7.200000E+01   7.170000E+01   7.140000E+01   7.110000E+01   7.080000E+01   7.050000E+01
   7.500000E+01   7.470000E+01   7.440000E+01   7.410000E+01   7.380000E+01   7.350000E+01   7.320000E+01   7.290000E+01   7.260000E+01   7.230000E+01   7.200000E+01   7.170000E+01   7.140000E+01   7.110000E+01   7.080000E+01   7.050000E+01
   7.500000E+01   7.470000E+01   7.440000E+01   7.410000E+01   7.380000E+01   7.350000E+01   7.320000E+01   7.290000E+01   7.260000E+01   7.230000E+01   7.200000E+01   7.170000E+01   7.140000E+01   7.110000E+01   7.080000E+01   7.050000E+01
   7.500000E+01   7.470000E+01   7.440000E+01   7.410000E+01   7.380000E+01   7.350000E+01   7.320000E+01   7.290000E+01   7.260000E+01   7.230000E+01   7.200000E+01   7.170000E+01   7.140000E+01   7.110000E+01   7.080000E+01   7.050000E+01
   7.500000E+01   7.470000E+01   7.440000E+01   7.410000E+01   7.380000E+01   7.350000E+01   7.320000E+01   7.290000E+01   7.260000E+01   7.230000E+01   7.200000E+01   7.170000E+01   7.140000E+01   7.110000E+01   7.080000E+01   7.050000E+01
   7.500000E+01   7.470000E+01   7.440000E+01   7.410000E+01   7.380000E+01   7.350000E+01   7.320000E+01   7.290000E+01   7.260000E+01   7.230000E+01   7.200000E+01   7.170000E+01   7.140000E+01   7.110000E+01   7.080000E+01   7.050000E+01
   7.500000E+01   7.470000E+01   7.440000E+01   7.410000E+01   7.380000E+01   7.350000E+01   7.320000E+01   7.290000E+01   7.260000E+01   7.230000E+01   7.200000E+01   7.170000E+01   7.140000E+01   7.110000E+01   7.080000E+01   7.050000E+01
   7.500000E+01   7.470000E+01   7.440000E+01   7.410000E+01   7.380000E+01   7.350000E+01   7.320000E+01   7.290000E+01   7.260000E+01   7.230000E+01   7.200000E+01   7.170000E+01   7.140000E+01   7.110000E+01   7.080000E+01   7.050000E+01
   7.500000E+01   7.470000E+01   7.440000E+01   7.410000E+01   7.380000E+01   7.350000E+01   7.320000E+01   7.290000E+01   7.260000E+01   7.230000E+01   7.200000E+01   7.170000E+01   7.140000E+01   7.110000E+01   7.080000E+01   7.050000E+01
   7.500000E+01   7.470000E+01   7.440000E+01   7.410000E+01   7.380000E+01   7.350000E+01   7.320000E+01   7.290000E+01   7.260000E+01   7.230000E+01   7.200000E+01   7.170000E+01   7.140000E+01   7.110000E+01   7.080000E+01   7.050000E+01
