# UZF package for MODFLOW-NWT generated by Flopy 3.9.3
         1         1         0         1        53         0        25        20         0   1.000000E-01 #NUZTOP IUZFOPT IRUNFLG IETFLG ipakcb IUZFCB2 NTRAIL NSETS NUZGAGES                                
INTERNAL               1     (5I10) -1 #iuzfbnd                       
         0         1         1         1         1
         1         1         1         1         1
         1         1         1         1         1
         1         1         1         1         1
         1         1         1         1         0
INTERNAL               1   (5E15.6) -1 #vks                           
   1.000000E-01   1.000000E-01   1.000000E-01   1.000000E-01   1.000000E-01
   1.000000E-01   1.000000E-01   1.000000E-01   1.000000E-01   1.000000E-01
   1.000000E-01   1.000000E-01   1.000000E-01   1.000000E-01   1.000000E-01
   1.000000E-01   1.000000E-01   1.000000E-01   1.000000E-01   1.000000E-01
   1.000000E-01   1.000000E-01   1.000000E-01   1.000000E-01   1.000000E-01
CONSTANT    3.500000E+00                           #eps                           
CONSTANT    3.500000E-01                           #thts                          
         1 #finf for stress period 1
INTERNAL               1   (5E15.6) -1 #finf1                         
   1.000000E-03   1.000000E-03   1.000000E-03   1.000000E-03   1.000000E-03
   1.000000E-03   1.000000E-03   1.000000E-03   1.000000E-03   1.000000E-03
   1.000000E-03   1.000000E-03   1.000000E-03   1.000000E-03   1.000000E-03
   1.000000E-03   1.000000E-03   1.000000E-03   1.000000E-03   1.000000E-03
   1.000000E-03   1.000000E-03   1.000000E-03   1.000000E-03   1.000000E-03
         1 #pet for stress period 1
CONSTANT    1.000000E-04                           #pet1                          
         1 #extdp for stress period 1
CONSTANT    5.000000E+00                           #extdp1                        
         1 #extwc for stress period 1
CONSTANT    1.000000E-01                           #extwc1                        
