# Name file for MODFLOW-NWT, generated by Flopy version 3.9.3.
#xll:0.0; yll:0.0; rotation:0.0; units:meters; lenuni:2; start_datetime:1-1-1970
LIST               2  uzf_demo.list
DIS               11  uzf_demo.dis
BAS6              13  uzf_demo.bas
UPW               31  uzf_demo.upw
UZF               19  uzf_demo.uzf
OC                14  uzf_demo.oc
NWT               32  uzf_demo.nwt
DATA(BINARY)      53  uzf_demo.cbc REPLACE
DATA(BINARY)      51  uzf_demo.hds REPLACE
