# File generated by Flopy version 3.9.3 on 08/07/2025 at 18:49:34.
BEGIN options
  TIME_UNITS  days
END options

BEGIN dimensions
  NPER  3
END dimensions

BEGIN perioddata
       1.00000000  1       1.00000000
     100.00000000  10       1.00000000
     100.00000000  10       1.00000000
END perioddata

