# File generated by Flopy version 3.9.3 on 08/07/2025 at 18:49:34.
BEGIN options
  SAVE_FLOWS
END options

BEGIN dimensions
  MAXBOUND  30
END dimensions

BEGIN period  1
  1 1 1 0.00000000E+00
  1 2 1 0.00000000E+00
  1 3 1 0.00000000E+00
  1 4 1 0.00000000E+00
  1 5 1 0.00000000E+00
  1 6 1 0.00000000E+00
  1 7 1 0.00000000E+00
  1 8 1 0.00000000E+00
  1 9 1 0.00000000E+00
  1 10 1 0.00000000E+00
  2 1 1 0.00000000E+00
  2 2 1 0.00000000E+00
  2 3 1 0.00000000E+00
  2 4 1 0.00000000E+00
  2 5 1 0.00000000E+00
  2 6 1 0.00000000E+00
  2 7 1 0.00000000E+00
  2 8 1 0.00000000E+00
  2 9 1 0.00000000E+00
  2 10 1 0.00000000E+00
  3 1 1 0.00000000E+00
  3 2 1 0.00000000E+00
  3 3 1 0.00000000E+00
  3 4 1 0.00000000E+00
  3 5 1 0.00000000E+00
  3 6 1 0.00000000E+00
  3 7 1 0.00000000E+00
  3 8 1 0.00000000E+00
  3 9 1 0.00000000E+00
  3 10 1 0.00000000E+00
END period  1

