# File generated by Flopy version 3.9.3 on 08/08/2025 at 09:11:13.
BEGIN options
  PRINT_INPUT
  PRINT_FLOWS
  SAVE_FLOWS
  NEWTON
END options

BEGIN packages
  DIS6  tutorial_model.dis  dis
  NPF6  tutorial_model.npf  npf
  STO6  tutorial_model.sto  sto
  IC6  tutorial_model.ic  ic
  CHD6  tutorial_model.chd  chd_0
  WEL6  tutorial_model.wel  wel_0
  RCH6  tutorial_model.rcha  rcha_0
  OC6  tutorial_model.oc  oc
  OBS6  tutorial_model.obs  obs_0
END packages

