# File generated by Flopy version 3.9.3 on 08/08/2025 at 09:11:13.
BEGIN options
  PRINT_INPUT
END options

BEGIN continuous  FILEOUT  obs.csv
  obs1  HEAD  2 5 5
  obs2  HEAD  2 1 1
END continuous  FILEOUT  obs.csv

