# File generated by Flopy version 3.9.3 on 08/08/2025 at 09:11:13.
BEGIN options
  SAVE_FLOWS
END options

BEGIN dimensions
  MAXBOUND  1
END dimensions

BEGIN period  1
  2 5 5 -5.00000000E+02
END period  1

