# File generated by Flopy version 3.9.3 on 08/08/2025 at 09:11:13.
BEGIN options
  READASARRAYS
  SAVE_FLOWS
END options

BEGIN period  1
  recharge
    CONSTANT       0.00100000
END period  1

