# File generated by Flopy version 3.9.3 on 08/07/2025 at 18:49:34.
BEGIN options
  SAVE_FLOWS
END options

BEGIN dimensions
  MAXBOUND  1
END dimensions

BEGIN period  1
  2 5 5 -5.00000000E+02
END period  1

