# File generated by Flopy version 3.9.3 on 08/07/2025 at 17:52:15.
BEGIN options
  SAVE_FLOWS
END options

BEGIN packages
  DIS6  original_model.dis  dis
  NPF6  original_model.npf  npf
  IC6  original_model.ic  ic
  CHD6  original_model.chd  chd_0
  WEL6  original_model.wel  wel_0
  OC6  original_model.oc  oc
END packages

