# File generated by Flopy version 3.9.3 on 08/07/2025 at 17:52:15.
BEGIN options
  BUDGET  FILEOUT  original_model.cbc
  HEAD  FILEOUT  original_model.hds
END options

BEGIN period  1
  SAVE  HEAD  ALL
  SAVE  BUDGET  ALL
END period  1

