# File generated by Flopy version 3.9.3 on 08/08/2025 at 09:11:11.
BEGIN options
END options

BEGIN dimensions
  MAXBOUND  2
END dimensions

BEGIN period  1
  1 5 5 -2.00000000E+02
  2 8 8 -1.00000000E+02
END period  1

BEGIN period  2
  1 5 5 -1.50000000E+02
  2 8 8 -7.50000000E+01
END period  2

