# File generated by Flopy version 3.9.3 on 08/08/2025 at 18:27:40.
BEGIN options
END options

BEGIN timing
  TDIS6  splitter_demo.tdis
END timing

BEGIN models
  gwf6  splitter_model_1.nam  splitter_model_1
  gwf6  splitter_model_2.nam  splitter_model_2
END models

BEGIN exchanges
  GWF6-GWF6  sim_splitter_model_1_splitter_model_2.gwfgwf  splitter_model_1  splitter_model_2
END exchanges

BEGIN solutiongroup  1
  ims6  splitter_demo.ims  splitter_model_1  splitter_model_2
END solutiongroup  1

