# File generated by Flopy version 3.9.3 on 08/08/2025 at 18:27:40.
BEGIN options
END options

BEGIN griddata
  strt
    CONSTANT      45.00000000
END griddata

