# File generated by Flopy version 3.9.3 on 08/08/2025 at 18:27:40.
BEGIN options
END options

BEGIN dimensions
  MAXBOUND  2
END dimensions

BEGIN period  1
  1 3 3 -1.00000000E+02
END period  1

