# WEL package for MODFLOW-2005 generated by Flopy 3.9.3
         1         0 
         1         0 # stress period 1
         2         6         6          -500.0
        -1         0 # stress period 2
        -1         0 # stress period 3
        -1         0 # stress period 4
        -1         0 # stress period 5
        -1         0 # stress period 6
        -1         0 # stress period 7
        -1         0 # stress period 8
        -1         0 # stress period 9
        -1         0 # stress period 10
