# File generated by Flopy version 3.9.3 on 08/08/2025 at 09:11:28.
BEGIN options
  PRINT_INPUT
  PRINT_FLOWS
  SAVE_FLOWS
END options

BEGIN packages
  DIS6  flow_model.dis  dis
  IC6  flow_model.ic  ic
  NPF6  flow_model.npf  npf
  STO6  flow_model.sto  sto
  CHD6  flow_model.chd  chd_0
  RCH6  flow_model.rcha  rcha_0
  OC6  flow_model.oc  oc
END packages

