# File generated by Flopy version 3.9.3 on 08/08/2025 at 09:11:28.
BEGIN options
  BUDGET  FILEOUT  flow_model.cbc
  HEAD  FILEOUT  flow_model.hds
END options

BEGIN period  1
  SAVE  HEAD  ALL
  SAVE  BUDGET  ALL
  PRINT  HEAD  ALL
  PRINT  BUDGET  ALL
END period  1

