# File generated by Flopy version 3.9.3 on 08/07/2025 at 09:01:46.
BEGIN options
  READASARRAYS
END options

BEGIN period  1
  recharge
    CONSTANT       0.00100000
END period  1

BEGIN period  2
  recharge
    CONSTANT       0.00200000
END period  2

BEGIN period  3
  recharge
    CONSTANT  5.00000000E-04
END period  3

