# File generated by Flopy version 3.9.3 on 08/07/2025 at 09:01:46.
BEGIN options
END options

BEGIN dimensions
  NLAY  2
  NROW  20
  NCOL  25
END dimensions

BEGIN griddata
  delr
    CONSTANT     100.00000000
  delc
    CONSTANT     100.00000000
  top
    CONSTANT     100.00000000
  botm  LAYERED
    CONSTANT      50.00000000
    CONSTANT       0.00000000
END griddata

