# File generated by Flopy version 3.9.3 on 08/07/2025 at 09:01:46.
BEGIN options
END options

BEGIN griddata
  strt  LAYERED
    INTERNAL  FACTOR  1.0
          65.00000000      65.00000000      65.00000000      65.00000000      65.00000000      65.00000000      65.00000000      65.00000000      65.00000000      65.00000000      65.00000000      65.00000000      65.00000000      65.00000000      65.00000000      65.00000000      65.00000000      65.00000000      65.00000000      65.00000000      65.00000000      65.00000000      65.00000000      65.00000000      65.00000000
          65.00000000      65.00000000      65.00000000      65.00000000      65.00000000      65.00000000      65.00000000      65.00000000      65.00000000      65.00000000      65.00000000      65.00000000      65.00000000      65.00000000      65.00000000      65.00000000      65.00000000      65.00000000      65.00000000      65.00000000      65.00000000      65.00000000      65.00000000      65.00000000      65.00000000
          65.00000000      65.00000000      65.00000000      65.00000000      65.00000000      65.00000000      65.00000000      65.00000000      65.00000000      65.00000000      65.00000000      65.00000000      65.00000000      65.00000000      65.00000000      65.00000000      65.00000000      65.00000000      65.00000000      65.00000000      65.00000000      65.00000000      65.00000000      65.00000000      65.00000000
          65.00000000      65.00000000      65.00000000      65.00000000      65.00000000      65.00000000      65.00000000      65.00000000      65.00000000      65.00000000      65.00000000      65.00000000      65.00000000      65.00000000      65.00000000      65.00000000      65.00000000      65.00000000      65.00000000      65.00000000      65.00000000      65.00000000      65.00000000      65.00000000      65.00000000
          65.00000000      65.00000000      65.00000000      65.00000000      65.00000000      65.00000000      65.00000000      65.00000000      65.00000000      65.00000000      65.00000000      65.00000000      65.00000000      65.00000000      65.00000000      65.00000000      65.00000000      65.00000000      65.00000000      65.00000000      65.00000000      65.00000000      65.00000000      65.00000000      65.00000000
          60.00000000      60.00000000      60.00000000      60.00000000      60.00000000      60.00000000      60.00000000      60.00000000      60.00000000      60.00000000      60.00000000      60.00000000      60.00000000      60.00000000      60.00000000      60.00000000      60.00000000      60.00000000      60.00000000      60.00000000      60.00000000      60.00000000      60.00000000      60.00000000      60.00000000
          60.00000000      60.00000000      60.00000000      60.00000000      60.00000000      60.00000000      60.00000000      60.00000000      60.00000000      60.00000000      60.00000000      60.00000000      60.00000000      60.00000000      60.00000000      60.00000000      60.00000000      60.00000000      60.00000000      60.00000000      60.00000000      60.00000000      60.00000000      60.00000000      60.00000000
          60.00000000      60.00000000      60.00000000      60.00000000      60.00000000      60.00000000      60.00000000      60.00000000      60.00000000      60.00000000      60.00000000      60.00000000      60.00000000      60.00000000      60.00000000      60.00000000      60.00000000      60.00000000      60.00000000      60.00000000      60.00000000      60.00000000      60.00000000      60.00000000      60.00000000
          60.00000000      60.00000000      60.00000000      60.00000000      60.00000000      60.00000000      60.00000000      60.00000000      60.00000000      60.00000000      60.00000000      60.00000000      60.00000000      60.00000000      60.00000000      60.00000000      60.00000000      60.00000000      60.00000000      60.00000000      60.00000000      60.00000000      60.00000000      60.00000000      60.00000000
          60.00000000      60.00000000      60.00000000      60.00000000      60.00000000      60.00000000      60.00000000      60.00000000      60.00000000      60.00000000      60.00000000      60.00000000      60.00000000      60.00000000      60.00000000      60.00000000      60.00000000      60.00000000      60.00000000      60.00000000      60.00000000      60.00000000      60.00000000      60.00000000      60.00000000
          60.00000000      60.00000000      60.00000000      60.00000000      60.00000000      60.00000000      60.00000000      60.00000000      60.00000000      60.00000000      60.00000000      60.00000000      60.00000000      60.00000000      60.00000000      60.00000000      60.00000000      60.00000000      60.00000000      60.00000000      60.00000000      60.00000000      60.00000000      60.00000000      60.00000000
          60.00000000      60.00000000      60.00000000      60.00000000      60.00000000      60.00000000      60.00000000      60.00000000      60.00000000      60.00000000      60.00000000      60.00000000      60.00000000      60.00000000      60.00000000      60.00000000      60.00000000      60.00000000      60.00000000      60.00000000      60.00000000      60.00000000      60.00000000      60.00000000      60.00000000
          60.00000000      60.00000000      60.00000000      60.00000000      60.00000000      60.00000000      60.00000000      60.00000000      60.00000000      60.00000000      60.00000000      60.00000000      60.00000000      60.00000000      60.00000000      60.00000000      60.00000000      60.00000000      60.00000000      60.00000000      60.00000000      60.00000000      60.00000000      60.00000000      60.00000000
          60.00000000      60.00000000      60.00000000      60.00000000      60.00000000      60.00000000      60.00000000      60.00000000      60.00000000      60.00000000      60.00000000      60.00000000      60.00000000      60.00000000      60.00000000      60.00000000      60.00000000      60.00000000      60.00000000      60.00000000      60.00000000      60.00000000      60.00000000      60.00000000      60.00000000
          60.00000000      60.00000000      60.00000000      60.00000000      60.00000000      60.00000000      60.00000000      60.00000000      60.00000000      60.00000000      60.00000000      60.00000000      60.00000000      60.00000000      60.00000000      60.00000000      60.00000000      60.00000000      60.00000000      60.00000000      60.00000000      60.00000000      60.00000000      60.00000000      60.00000000
          55.00000000      55.00000000      55.00000000      55.00000000      55.00000000      55.00000000      55.00000000      55.00000000      55.00000000      55.00000000      55.00000000      55.00000000      55.00000000      55.00000000      55.00000000      55.00000000      55.00000000      55.00000000      55.00000000      55.00000000      55.00000000      55.00000000      55.00000000      55.00000000      55.00000000
          55.00000000      55.00000000      55.00000000      55.00000000      55.00000000      55.00000000      55.00000000      55.00000000      55.00000000      55.00000000      55.00000000      55.00000000      55.00000000      55.00000000      55.00000000      55.00000000      55.00000000      55.00000000      55.00000000      55.00000000      55.00000000      55.00000000      55.00000000      55.00000000      55.00000000
          55.00000000      55.00000000      55.00000000      55.00000000      55.00000000      55.00000000      55.00000000      55.00000000      55.00000000      55.00000000      55.00000000      55.00000000      55.00000000      55.00000000      55.00000000      55.00000000      55.00000000      55.00000000      55.00000000      55.00000000      55.00000000      55.00000000      55.00000000      55.00000000      55.00000000
          55.00000000      55.00000000      55.00000000      55.00000000      55.00000000      55.00000000      55.00000000      55.00000000      55.00000000      55.00000000      55.00000000      55.00000000      55.00000000      55.00000000      55.00000000      55.00000000      55.00000000      55.00000000      55.00000000      55.00000000      55.00000000      55.00000000      55.00000000      55.00000000      55.00000000
          55.00000000      55.00000000      55.00000000      55.00000000      55.00000000      55.00000000      55.00000000      55.00000000      55.00000000      55.00000000      55.00000000      55.00000000      55.00000000      55.00000000      55.00000000      55.00000000      55.00000000      55.00000000      55.00000000      55.00000000      55.00000000      55.00000000      55.00000000      55.00000000      55.00000000
    INTERNAL  FACTOR  1.0
          60.00000000      60.00000000      60.00000000      60.00000000      60.00000000      60.00000000      60.00000000      60.00000000      60.00000000      60.00000000      60.00000000      60.00000000      60.00000000      60.00000000      60.00000000      60.00000000      60.00000000      60.00000000      60.00000000      60.00000000      60.00000000      60.00000000      60.00000000      60.00000000      60.00000000
          60.00000000      60.00000000      60.00000000      60.00000000      60.00000000      60.00000000      60.00000000      60.00000000      60.00000000      60.00000000      60.00000000      60.00000000      60.00000000      60.00000000      60.00000000      60.00000000      60.00000000      60.00000000      60.00000000      60.00000000      60.00000000      60.00000000      60.00000000      60.00000000      60.00000000
          60.00000000      60.00000000      60.00000000      60.00000000      60.00000000      60.00000000      60.00000000      60.00000000      60.00000000      60.00000000      60.00000000      60.00000000      60.00000000      60.00000000      60.00000000      60.00000000      60.00000000      60.00000000      60.00000000      60.00000000      60.00000000      60.00000000      60.00000000      60.00000000      60.00000000
          60.00000000      60.00000000      60.00000000      60.00000000      60.00000000      60.00000000      60.00000000      60.00000000      60.00000000      60.00000000      60.00000000      60.00000000      60.00000000      60.00000000      60.00000000      60.00000000      60.00000000      60.00000000      60.00000000      60.00000000      60.00000000      60.00000000      60.00000000      60.00000000      60.00000000
          60.00000000      60.00000000      60.00000000      60.00000000      60.00000000      60.00000000      60.00000000      60.00000000      60.00000000      60.00000000      60.00000000      60.00000000      60.00000000      60.00000000      60.00000000      60.00000000      60.00000000      60.00000000      60.00000000      60.00000000      60.00000000      60.00000000      60.00000000      60.00000000      60.00000000
          60.00000000      60.00000000      60.00000000      60.00000000      60.00000000      60.00000000      60.00000000      60.00000000      60.00000000      60.00000000      60.00000000      60.00000000      60.00000000      60.00000000      60.00000000      60.00000000      60.00000000      60.00000000      60.00000000      60.00000000      60.00000000      60.00000000      60.00000000      60.00000000      60.00000000
          60.00000000      60.00000000      60.00000000      60.00000000      60.00000000      60.00000000      60.00000000      60.00000000      60.00000000      60.00000000      60.00000000      60.00000000      60.00000000      60.00000000      60.00000000      60.00000000      60.00000000      60.00000000      60.00000000      60.00000000      60.00000000      60.00000000      60.00000000      60.00000000      60.00000000
          60.00000000      60.00000000      60.00000000      60.00000000      60.00000000      60.00000000      60.00000000      60.00000000      60.00000000      60.00000000      60.00000000      60.00000000      60.00000000      60.00000000      60.00000000      60.00000000      60.00000000      60.00000000      60.00000000      60.00000000      60.00000000      60.00000000      60.00000000      60.00000000      60.00000000
          60.00000000      60.00000000      60.00000000      60.00000000      60.00000000      60.00000000      60.00000000      60.00000000      60.00000000      60.00000000      60.00000000      60.00000000      60.00000000      60.00000000      60.00000000      60.00000000      60.00000000      60.00000000      60.00000000      60.00000000      60.00000000      60.00000000      60.00000000      60.00000000      60.00000000
          60.00000000      60.00000000      60.00000000      60.00000000      60.00000000      60.00000000      60.00000000      60.00000000      60.00000000      60.00000000      60.00000000      60.00000000      60.00000000      60.00000000      60.00000000      60.00000000      60.00000000      60.00000000      60.00000000      60.00000000      60.00000000      60.00000000      60.00000000      60.00000000      60.00000000
          60.00000000      60.00000000      60.00000000      60.00000000      60.00000000      60.00000000      60.00000000      60.00000000      60.00000000      60.00000000      60.00000000      60.00000000      60.00000000      60.00000000      60.00000000      60.00000000      60.00000000      60.00000000      60.00000000      60.00000000      60.00000000      60.00000000      60.00000000      60.00000000      60.00000000
          60.00000000      60.00000000      60.00000000      60.00000000      60.00000000      60.00000000      60.00000000      60.00000000      60.00000000      60.00000000      60.00000000      60.00000000      60.00000000      60.00000000      60.00000000      60.00000000      60.00000000      60.00000000      60.00000000      60.00000000      60.00000000      60.00000000      60.00000000      60.00000000      60.00000000
          60.00000000      60.00000000      60.00000000      60.00000000      60.00000000      60.00000000      60.00000000      60.00000000      60.00000000      60.00000000      60.00000000      60.00000000      60.00000000      60.00000000      60.00000000      60.00000000      60.00000000      60.00000000      60.00000000      60.00000000      60.00000000      60.00000000      60.00000000      60.00000000      60.00000000
          60.00000000      60.00000000      60.00000000      60.00000000      60.00000000      60.00000000      60.00000000      60.00000000      60.00000000      60.00000000      60.00000000      60.00000000      60.00000000      60.00000000      60.00000000      60.00000000      60.00000000      60.00000000      60.00000000      60.00000000      60.00000000      60.00000000      60.00000000      60.00000000      60.00000000
          60.00000000      60.00000000      60.00000000      60.00000000      60.00000000      60.00000000      60.00000000      60.00000000      60.00000000      60.00000000      60.00000000      60.00000000      60.00000000      60.00000000      60.00000000      60.00000000      60.00000000      60.00000000      60.00000000      60.00000000      60.00000000      60.00000000      60.00000000      60.00000000      60.00000000
          60.00000000      60.00000000      60.00000000      60.00000000      60.00000000      60.00000000      60.00000000      60.00000000      60.00000000      60.00000000      60.00000000      60.00000000      60.00000000      60.00000000      60.00000000      60.00000000      60.00000000      60.00000000      60.00000000      60.00000000      60.00000000      60.00000000      60.00000000      60.00000000      60.00000000
          60.00000000      60.00000000      60.00000000      60.00000000      60.00000000      60.00000000      60.00000000      60.00000000      60.00000000      60.00000000      60.00000000      60.00000000      60.00000000      60.00000000      60.00000000      60.00000000      60.00000000      60.00000000      60.00000000      60.00000000      60.00000000      60.00000000      60.00000000      60.00000000      60.00000000
          60.00000000      60.00000000      60.00000000      60.00000000      60.00000000      60.00000000      60.00000000      60.00000000      60.00000000      60.00000000      60.00000000      60.00000000      60.00000000      60.00000000      60.00000000      60.00000000      60.00000000      60.00000000      60.00000000      60.00000000      60.00000000      60.00000000      60.00000000      60.00000000      60.00000000
          60.00000000      60.00000000      60.00000000      60.00000000      60.00000000      60.00000000      60.00000000      60.00000000      60.00000000      60.00000000      60.00000000      60.00000000      60.00000000      60.00000000      60.00000000      60.00000000      60.00000000      60.00000000      60.00000000      60.00000000      60.00000000      60.00000000      60.00000000      60.00000000      60.00000000
          60.00000000      60.00000000      60.00000000      60.00000000      60.00000000      60.00000000      60.00000000      60.00000000      60.00000000      60.00000000      60.00000000      60.00000000      60.00000000      60.00000000      60.00000000      60.00000000      60.00000000      60.00000000      60.00000000      60.00000000      60.00000000      60.00000000      60.00000000      60.00000000      60.00000000
END griddata

