# File generated by Flopy version 3.9.3 on 08/08/2025 at 09:11:28.
BEGIN options
END options

BEGIN dimensions
  MAXBOUND  40
END dimensions

BEGIN period  1
  1 1 1 6.50000000E+01
  1 1 25 5.50000000E+01
  1 2 1 6.50000000E+01
  1 2 25 5.50000000E+01
  1 3 1 6.50000000E+01
  1 3 25 5.50000000E+01
  1 4 1 6.50000000E+01
  1 4 25 5.50000000E+01
  1 5 1 6.50000000E+01
  1 5 25 5.50000000E+01
  1 6 1 6.50000000E+01
  1 6 25 5.50000000E+01
  1 7 1 6.50000000E+01
  1 7 25 5.50000000E+01
  1 8 1 6.50000000E+01
  1 8 25 5.50000000E+01
  1 9 1 6.50000000E+01
  1 9 25 5.50000000E+01
  1 10 1 6.50000000E+01
  1 10 25 5.50000000E+01
  1 11 1 6.50000000E+01
  1 11 25 5.50000000E+01
  1 12 1 6.50000000E+01
  1 12 25 5.50000000E+01
  1 13 1 6.50000000E+01
  1 13 25 5.50000000E+01
  1 14 1 6.50000000E+01
  1 14 25 5.50000000E+01
  1 15 1 6.50000000E+01
  1 15 25 5.50000000E+01
  1 16 1 6.50000000E+01
  1 16 25 5.50000000E+01
  1 17 1 6.50000000E+01
  1 17 25 5.50000000E+01
  1 18 1 6.50000000E+01
  1 18 25 5.50000000E+01
  1 19 1 6.50000000E+01
  1 19 25 5.50000000E+01
  1 20 1 6.50000000E+01
  1 20 25 5.50000000E+01
END period  1

