# File generated by Flopy version 3.9.3 on 08/07/2025 at 09:01:46.
BEGIN options
  MEMORY_PRINT_OPTION  summary
END options

BEGIN timing
  TDIS6  simlist_demo.tdis
END timing

BEGIN models
  gwf6  flow_model.nam  flow_model
END models

BEGIN exchanges
END exchanges

BEGIN solutiongroup  1
  ims6  simlist_demo.ims  flow_model
END solutiongroup  1

