# File generated by Flopy version 3.9.3 on 08/08/2025 at 09:11:28.
BEGIN options
  PRINT_OPTION  all
  COMPLEXITY  moderate
END options

BEGIN nonlinear
  OUTER_DVCLOSE  1.00000000E-06
  OUTER_MAXIMUM  100
  BACKTRACKING_NUMBER  20
  BACKTRACKING_TOLERANCE       1.10000000
  BACKTRACKING_REDUCTION_FACTOR       0.20000000
END nonlinear

BEGIN linear
  INNER_MAXIMUM  50
  INNER_DVCLOSE  1.00000000E-08
  LINEAR_ACCELERATION  bicgstab
  RELAXATION_FACTOR       0.97000000
END linear

