# MNW2 package for MODFLOW-2005 generated by Flopy 3.9.3
2 53 0
WELL1 -2
            SKIN -1 0 0 0
               5.0000000E-01    1.0000000E+00    5.0000000E+00
               9.5000000E+01    8.5000000E+01 4 4
               8.5000000E+01    5.5000000E+01 4 4
               9.0000000E+01
WELL2 -3
            SKIN -1 0 0 0
               5.0000000E-01    1.5000000E+00    3.0000000E+00
               9.5000000E+01    8.5000000E+01 8 8
               8.5000000E+01    5.5000000E+01 8 8
               5.5000000E+01    5.0000000E+00 8 8
               9.0000000E+01
2  Stress Period 1
WELL1    0.0000000E+00
WELL2    0.0000000E+00
2  Stress Period 2
WELL1   -5.0000000E+02
WELL2   -1.0000000E+03
2  Stress Period 3
WELL1   -2.5000000E+02
WELL2   -1.5000000E+03
