# Name file for MODFLOW-2005, generated by Flopy version 3.9.3.
#xll:0.0; yll:0.0; rotation:0.0; units:meters; lenuni:2; start_datetime:1-1-1970
LIST               2  mnw2_example.list
DIS               11  mnw2_example.dis
BAS6              13  mnw2_example.bas
LPF               15  mnw2_example.lpf
MNW2              34  mnw2_example.mnw2
CHD               24  mnw2_example.chd
OC                14  mnw2_example.oc
PCG               27  mnw2_example.pcg
DATA(BINARY)      53  mnw2_example.cbc REPLACE
DATA(BINARY)      51  mnw2_example.hds REPLACE
